
 Fire Dynamics Simulator

 Current Date     : May 15, 2021  00:38:42
 Revision         : FDS6.7.4-0-gbfaa110f1-release
 Revision Date    : Fri Mar 6 10:17:46 2020 -0500
 Compiler         : Intel ifort 19.0.4.245
 Compilation Date : Mon 03/09/2020  04:12 PM

 MPI Enabled;    Number of MPI Processes:       1
 OpenMP Enabled; Number of OpenMP Threads:      4

 MPI version: 3.1
 MPI library version: Intel(R) MPI Library 2019 Update 4 for Windows* OS


 Job TITLE        : Tor Faraj Rockshelter
 Job ID string    : Tor Faraj


 Grid Dimensions, Mesh     1

   Cells in the X Direction            20
   Cells in the Y Direction            60
   Cells in the Z Direction            40
   Number of Grid Cells             48000


 Physical Dimensions, Mesh     1

   Length (m)                      10.000
   Width  (m)                      30.000
   Height (m)                      20.000
   Initial Time Step (s)            0.177

Total Number of Grid Cells         48000


 Miscellaneous Parameters

   Simulation Start Time (s)          0.0
   Simulation End Time (s)         3600.0
   LES Calculation
   Eddy Viscosity:           Deardorff Model (C_DEARDORFF = 0.10)
   Near-wall Eddy Viscosity: Smagorinsky with Van Driest damping (C_SMAGORINSKY = 0.20)
   Turbulent Prandtl Number:         0.50
   Turbulent Schmidt Number:         0.50
   Ambient Temperature (C):         10.00


 Mass Fraction Transformation Matrix to Convert Species Mixtures (Columns) to Primitive Species (Rows)

                         AIR       WOOD      PRODUCTS
   WOOD                  0.000000  1.000000  0.000000
   NITROGEN              0.764623  0.000000  0.647496
   OXYGEN                0.231650  0.000000  0.000000
   CARBON DIOXIDE        0.000593  0.000000  0.255950
   CARBON MONOXIDE       0.000000  0.000000  0.000000
   WATER VAPOR           0.003134  0.000000  0.094252
   SOOT                  0.000000  0.000000  0.002301
   HYDROGEN              0.000000  0.000000  0.000000


 Primitive Species Information

   WOOD
   Gas Species
   Molecular Weight (g/mol)            25.59177
   Ambient Density (kg/m^3)            1.101
   Enthalpy of Formation (J/kg)       -6.50E+06

   NITROGEN
   Gas Species
   Molecular Weight (g/mol)            28.01340
   Ambient Density (kg/m^3)            1.206
   Enthalpy of Formation (J/kg)        0.00E+00

   OXYGEN
   Gas Species
   Molecular Weight (g/mol)            31.99880
   Ambient Density (kg/m^3)            1.377
   Enthalpy of Formation (J/kg)        0.00E+00

   CARBON DIOXIDE
   Gas Species
   Molecular Weight (g/mol)            44.00950
   Ambient Density (kg/m^3)            1.894
   Enthalpy of Formation (J/kg)       -8.94E+06

   CARBON MONOXIDE
   Gas Species
   Molecular Weight (g/mol)            28.01010
   Ambient Density (kg/m^3)            1.206
   Enthalpy of Formation (J/kg)       -3.95E+06

   WATER VAPOR
   Gas Species
   Molecular Weight (g/mol)            18.01528
   Ambient Density (kg/m^3)            0.775
   Enthalpy of Formation (J/kg)       -1.34E+07

   SOOT
   Gas Species
   Molecular Weight (g/mol)            10.91042
   Ambient Density (kg/m^3)            0.470
   Enthalpy of Formation (J/kg)        0.00E+00

   HYDROGEN
   Gas Species
   Molecular Weight (g/mol)             2.01588
   Ambient Density (kg/m^3)            0.087
   Enthalpy of Formation (J/kg)        0.00E+00


 Tracked (Lumped) Species Information

   AIR
   Molecular Weight (g/mol)            28.80046
   Ambient Density (kg/m^3)            1.240
   Initial Mass Fraction               1.000
   Enthalpy of Formation (J/kg)     -4.74E+04

   Sub Species                    Mass Fraction     Mole Fraction
   NITROGEN                       7.646232E-01      7.861058E-01
   OXYGEN                         2.316497E-01      2.084959E-01
   CARBON DIOXIDE                 5.931353E-04      3.881563E-04
   WATER VAPOR                    3.133977E-03      5.010190E-03
 
     Viscosity (kg/m/s) Ambient,  283 K:  1.75E-05
                                  500 K:  2.62E-05
                                 1000 K:  4.13E-05
                                 1500 K:  5.37E-05
   Therm. Cond. (W/m/K) Ambient,  283 K:  2.49E-02
                                  500 K:  3.81E-02
                                 1000 K:  6.68E-02
                                 1500 K:  9.23E-02
        Enthalpy (J/kg) Ambient,  283 K: -6.26E+04
                                  500 K:  1.59E+05
                                 1000 K:  7.08E+05
                                 1500 K:  1.30E+06
    Spec. Heat (J/kg/K) Ambient,  283 K:  1.01E+03
                                  500 K:  1.04E+03
                                 1000 K:  1.15E+03
                                 1500 K:  1.22E+03
   Diff. Coeff. (m^2/s) Ambient,  283 K:  1.87E-05
                                  500 K:  4.96E-05
                                 1000 K:  1.58E-04
                                 1500 K:  3.09E-04

   WOOD
   Molecular Weight (g/mol)            25.59177
   Ambient Density (kg/m^3)            1.101
   Initial Mass Fraction               0.000
   Enthalpy of Formation (J/kg)     -6.50E+06

   Sub Species                    Mass Fraction     Mole Fraction
   WOOD                           1.000000E+00      1.000000E+00
 
     Viscosity (kg/m/s) Ambient,  283 K:  1.62E-05
                                  500 K:  2.40E-05
                                 1000 K:  3.77E-05
                                 1500 K:  4.91E-05
   Therm. Cond. (W/m/K) Ambient,  283 K:  2.60E-02
                                  500 K:  3.84E-02
                                 1000 K:  6.04E-02
                                 1500 K:  7.86E-02
        Enthalpy (J/kg) Ambient,  283 K: -6.52E+06
                                  500 K: -6.28E+06
                                 1000 K: -5.71E+06
                                 1500 K: -5.14E+06
    Spec. Heat (J/kg/K) Ambient,  283 K:  1.14E+03
                                  500 K:  1.14E+03
                                 1000 K:  1.14E+03
                                 1500 K:  1.14E+03
   Diff. Coeff. (m^2/s) Ambient,  283 K:  1.91E-05
                                  500 K:  5.05E-05
                                 1000 K:  1.60E-04
                                 1500 K:  3.14E-04

   PRODUCTS
   Molecular Weight (g/mol)            29.09319
   Ambient Density (kg/m^3)            1.252
   Initial Mass Fraction               0.000
   Enthalpy of Formation (J/kg)     -3.55E+06

   Sub Species                    Mass Fraction     Mole Fraction
   NITROGEN                       6.474962E-01      6.724543E-01
   CARBON DIOXIDE                 2.559504E-01      1.692001E-01
   CARBON MONOXIDE                0.000000E+00      0.000000E+00
   WATER VAPOR                    9.425237E-02      1.522098E-01
   SOOT                           2.301033E-03      6.135819E-03
 
     Viscosity (kg/m/s) Ambient,  283 K:  1.56E-05
                                  500 K:  2.38E-05
                                 1000 K:  3.89E-05
                                 1500 K:  5.14E-05
   Therm. Cond. (W/m/K) Ambient,  283 K:  2.22E-02
                                  500 K:  3.58E-02
                                 1000 K:  6.70E-02
                                 1500 K:  9.60E-02
        Enthalpy (J/kg) Ambient,  283 K: -3.57E+06
                                  500 K: -3.33E+06
                                 1000 K: -2.73E+06
                                 1500 K: -2.05E+06
    Spec. Heat (J/kg/K) Ambient,  283 K:  1.06E+03
                                  500 K:  1.13E+03
                                 1000 K:  1.29E+03
                                 1500 K:  1.40E+03
   Diff. Coeff. (m^2/s) Ambient,  283 K:  1.81E-05
                                  500 K:  4.90E-05
                                 1000 K:  1.58E-04
                                 1500 K:  3.11E-04


 Gas Phase Reaction Information

   Tewarson, SFPE Handbook, Douglas Fir

   Reaction ID:  WOOD

   Fuel                                           Heat of Combustion (kJ/kg)
   WOOD                                                           16400.0000

   Stoichiometry

   Primitive Species Stoich. Coeff.
   Species ID                                                          Molar
   WOOD                                                            -1.000000
   NITROGEN                                                         0.001000
   OXYGEN                                                          -1.022454
   CARBON DIOXIDE                                                   0.968334
   WATER VAPOR                                                      0.848241
   SOOT                                                             0.035184

   Tracked (Lumped) Species Stoich. Coeff.
   Species ID                                             Molar         Mass
   AIR                                                -4.903955    -5.518812
   WOOD                                               -1.000000    -1.000000
   PRODUCTS                                            5.734260     6.518812

   Reaction Kinetics

   Arrhenius Parameters
   Pre-exponential:    Infinite
   Activation Energy:  N/A

   ODE Solver:  EXPLICIT EULER
   Extinction Model:  EXTINCTION 2
   Auto-Ignition Temperature (K):       0.0
   Critical Flame Temperature (K):   1700.2


 Material Information

   1 CONCRETE                                                    
     Emissivity                      0.900
     Density (kg/m3)                2400.0
     Specific Heat (kJ/kg/K)      7.50E-01
     Conductivity (W/m/K)           1.6000

   2 ROCK                                                        
     Emissivity                      0.900
     Density (kg/m3)                2400.0
     Specific Heat (kJ/kg/K)      7.50E-01
     Conductivity (W/m/K)           3.0000


 Surface Conditions

   0 INERT

   1 CONCRETE WALL (DEFAULT)
     Material List
          1  CONCRETE
     Layer  1
        Thickness   (m):  0.50000
        Density (kg/m3):  2400.00
        CONCRETE, Mass fraction:    1.00
     Total surface density  1200.000 kg/m2
     Reaction products considered from the first  0.50 layers.
     Solid Phase Node, Layer, Coordinates(m):
                    0      1       0.0000000
                    1      1       0.0006527
                    2      1       0.0019582
                    3      1       0.0045692
                    4      1       0.0097911
                    5      1       0.0202350
                    6      1       0.0411227
                    7      1       0.0828982
                    8      1       0.1664491
                    9      1       0.3335509
                   10      1       0.4171018
                   11      1       0.4588773
                   12      1       0.4797650
                   13      1       0.4902089
                   14      1       0.4954308
                   15      1       0.4980418
                   16      1       0.4993473
                   17      1       0.5000000
     Exposed Backing

   2 ROCK WALL
     Material List
          1  ROCK
     Layer  1
        Thickness   (m):  0.50000
        Density (kg/m3):  2400.00
        ROCK, Mass fraction:    1.00
     Total surface density  1200.000 kg/m2
     Reaction products considered from the first  0.50 layers.
     Solid Phase Node, Layer, Coordinates(m):
                    0      1       0.0000000
                    1      1       0.0009804
                    2      1       0.0029412
                    3      1       0.0068627
                    4      1       0.0147059
                    5      1       0.0303922
                    6      1       0.0617647
                    7      1       0.1245098
                    8      1       0.2500000
                    9      1       0.3754902
                   10      1       0.4382353
                   11      1       0.4696078
                   12      1       0.4852941
                   13      1       0.4931373
                   14      1       0.4970588
                   15      1       0.4990196
                   16      1       0.5000000
     Exposed Backing

   3 FIRE
     HRR Per Unit Area (kW/m2)         90.0
     WOOD Mass Flux (kg/s/m2)   5.49E-03

   4 OPEN
     Passive Vent to Atmosphere

   5 MIRROR
     Symmetry Plane

   6 INTERPOLATED

   7 PERIODIC

   8 HVAC

   9 MASSLESS TRACER

  10 DROPLET

  11 EVACUATION_OUTFLOW
     Normal Velocity (m/s)         0.000

  12 MASSLESS TARGET

  13 PERIODIC WIND

  14 SLICE


 Device Coordinates

     1 Coords:      4.500000      2.500000      0.500000, Make: null, ID: soot_45_25_05, Quantity: TEMPERATURE
     2 Coords:      5.000000      2.500000      0.500000, Make: null, ID: soot_50_25_05, Quantity: TEMPERATURE
     3 Coords:      5.500000      2.500000      0.500000, Make: null, ID: soot_55_25_05, Quantity: TEMPERATURE
     4 Coords:      6.000000      2.500000      0.500000, Make: null, ID: soot_60_25_05, Quantity: TEMPERATURE
     5 Coords:      6.500000      2.500000      0.500000, Make: null, ID: soot_65_25_05, Quantity: TEMPERATURE
     6 Coords:      7.000000      2.500000      0.500000, Make: null, ID: soot_70_25_05, Quantity: TEMPERATURE
     7 Coords:      7.500000      2.500000      0.500000, Make: null, ID: soot_75_25_05, Quantity: TEMPERATURE
     8 Coords:      8.000000      2.500000      0.500000, Make: null, ID: soot_80_25_05, Quantity: TEMPERATURE
     9 Coords:      8.500000      2.500000      0.500000, Make: null, ID: soot_85_25_05, Quantity: TEMPERATURE
    10 Coords:      4.500000      2.500000      1.000000, Make: null, ID: soot_45_25_10, Quantity: TEMPERATURE
    11 Coords:      5.000000      2.500000      1.000000, Make: null, ID: soot_50_25_10, Quantity: TEMPERATURE
    12 Coords:      5.500000      2.500000      1.000000, Make: null, ID: soot_55_25_10, Quantity: TEMPERATURE
    13 Coords:      6.000000      2.500000      1.000000, Make: null, ID: soot_60_25_10, Quantity: TEMPERATURE
    14 Coords:      6.500000      2.500000      1.000000, Make: null, ID: soot_65_25_10, Quantity: TEMPERATURE
    15 Coords:      7.000000      2.500000      1.000000, Make: null, ID: soot_70_25_10, Quantity: TEMPERATURE
    16 Coords:      7.500000      2.500000      1.000000, Make: null, ID: soot_75_25_10, Quantity: TEMPERATURE
    17 Coords:      8.000000      2.500000      1.000000, Make: null, ID: soot_80_25_10, Quantity: TEMPERATURE
    18 Coords:      8.500000      2.500000      1.000000, Make: null, ID: soot_85_25_10, Quantity: TEMPERATURE
    19 Coords:      4.500000      2.500000      1.500000, Make: null, ID: soot_45_25_15, Quantity: TEMPERATURE
    20 Coords:      5.000000      2.500000      1.500000, Make: null, ID: soot_50_25_15, Quantity: TEMPERATURE
    21 Coords:      5.500000      2.500000      1.500000, Make: null, ID: soot_55_25_15, Quantity: TEMPERATURE
    22 Coords:      6.000000      2.500000      1.500000, Make: null, ID: soot_60_25_15, Quantity: TEMPERATURE
    23 Coords:      6.500000      2.500000      1.500000, Make: null, ID: soot_65_25_15, Quantity: TEMPERATURE
    24 Coords:      7.000000      2.500000      1.500000, Make: null, ID: soot_70_25_15, Quantity: TEMPERATURE
    25 Coords:      7.500000      2.500000      1.500000, Make: null, ID: soot_75_25_15, Quantity: TEMPERATURE
    26 Coords:      8.000000      2.500000      1.500000, Make: null, ID: soot_80_25_15, Quantity: TEMPERATURE
    27 Coords:      8.500000      2.500000      1.500000, Make: null, ID: soot_85_25_15, Quantity: TEMPERATURE
    28 Coords:      4.500000      2.500000      2.000000, Make: null, ID: soot_45_25_20, Quantity: TEMPERATURE
    29 Coords:      5.000000      2.500000      2.000000, Make: null, ID: soot_50_25_20, Quantity: TEMPERATURE
    30 Coords:      5.500000      2.500000      2.000000, Make: null, ID: soot_55_25_20, Quantity: TEMPERATURE
    31 Coords:      6.000000      2.500000      2.000000, Make: null, ID: soot_60_25_20, Quantity: TEMPERATURE
    32 Coords:      6.500000      2.500000      2.000000, Make: null, ID: soot_65_25_20, Quantity: TEMPERATURE
    33 Coords:      7.000000      2.500000      2.000000, Make: null, ID: soot_70_25_20, Quantity: TEMPERATURE
    34 Coords:      7.500000      2.500000      2.000000, Make: null, ID: soot_75_25_20, Quantity: TEMPERATURE
    35 Coords:      8.000000      2.500000      2.000000, Make: null, ID: soot_80_25_20, Quantity: TEMPERATURE
    36 Coords:      8.500000      2.500000      2.000000, Make: null, ID: soot_85_25_20, Quantity: TEMPERATURE
    37 Coords:      4.500000      2.500000      2.500000, Make: null, ID: soot_45_25_25, Quantity: TEMPERATURE
    38 Coords:      5.000000      2.500000      2.500000, Make: null, ID: soot_50_25_25, Quantity: TEMPERATURE
    39 Coords:      5.500000      2.500000      2.500000, Make: null, ID: soot_55_25_25, Quantity: TEMPERATURE
    40 Coords:      6.000000      2.500000      2.500000, Make: null, ID: soot_60_25_25, Quantity: TEMPERATURE
    41 Coords:      6.500000      2.500000      2.500000, Make: null, ID: soot_65_25_25, Quantity: TEMPERATURE
    42 Coords:      7.000000      2.500000      2.500000, Make: null, ID: soot_70_25_25, Quantity: TEMPERATURE
    43 Coords:      7.500000      2.500000      2.500000, Make: null, ID: soot_75_25_25, Quantity: TEMPERATURE
    44 Coords:      8.000000      2.500000      2.500000, Make: null, ID: soot_80_25_25, Quantity: TEMPERATURE
    45 Coords:      8.500000      2.500000      2.500000, Make: null, ID: soot_85_25_25, Quantity: TEMPERATURE
    46 Coords:      4.500000      2.500000      3.000000, Make: null, ID: soot_45_25_30, Quantity: TEMPERATURE
    47 Coords:      5.000000      2.500000      3.000000, Make: null, ID: soot_50_25_30, Quantity: TEMPERATURE
    48 Coords:      5.500000      2.500000      3.000000, Make: null, ID: soot_55_25_30, Quantity: TEMPERATURE
    49 Coords:      6.000000      2.500000      3.000000, Make: null, ID: soot_60_25_30, Quantity: TEMPERATURE
    50 Coords:      6.500000      2.500000      3.000000, Make: null, ID: soot_65_25_30, Quantity: TEMPERATURE
    51 Coords:      7.000000      2.500000      3.000000, Make: null, ID: soot_70_25_30, Quantity: TEMPERATURE
    52 Coords:      7.500000      2.500000      3.000000, Make: null, ID: soot_75_25_30, Quantity: TEMPERATURE
    53 Coords:      8.000000      2.500000      3.000000, Make: null, ID: soot_80_25_30, Quantity: TEMPERATURE
    54 Coords:      8.500000      2.500000      3.000000, Make: null, ID: soot_85_25_30, Quantity: TEMPERATURE
    55 Coords:      4.500000      3.000000      0.500000, Make: null, ID: soot_45_30_05, Quantity: TEMPERATURE
    56 Coords:      5.000000      3.000000      0.500000, Make: null, ID: soot_50_30_05, Quantity: TEMPERATURE
    57 Coords:      5.500000      3.000000      0.500000, Make: null, ID: soot_55_30_05, Quantity: TEMPERATURE
    58 Coords:      6.000000      3.000000      0.500000, Make: null, ID: soot_60_30_05, Quantity: TEMPERATURE
    59 Coords:      6.500000      3.000000      0.500000, Make: null, ID: soot_65_30_05, Quantity: TEMPERATURE
    60 Coords:      7.000000      3.000000      0.500000, Make: null, ID: soot_70_30_05, Quantity: TEMPERATURE
    61 Coords:      7.500000      3.000000      0.500000, Make: null, ID: soot_75_30_05, Quantity: TEMPERATURE
    62 Coords:      8.000000      3.000000      0.500000, Make: null, ID: soot_80_30_05, Quantity: TEMPERATURE
    63 Coords:      8.500000      3.000000      0.500000, Make: null, ID: soot_85_30_05, Quantity: TEMPERATURE
    64 Coords:      4.500000      3.000000      1.000000, Make: null, ID: soot_45_30_10, Quantity: TEMPERATURE
    65 Coords:      5.000000      3.000000      1.000000, Make: null, ID: soot_50_30_10, Quantity: TEMPERATURE
    66 Coords:      5.500000      3.000000      1.000000, Make: null, ID: soot_55_30_10, Quantity: TEMPERATURE
    67 Coords:      6.000000      3.000000      1.000000, Make: null, ID: soot_60_30_10, Quantity: TEMPERATURE
    68 Coords:      6.500000      3.000000      1.000000, Make: null, ID: soot_65_30_10, Quantity: TEMPERATURE
    69 Coords:      7.000000      3.000000      1.000000, Make: null, ID: soot_70_30_10, Quantity: TEMPERATURE
    70 Coords:      7.500000      3.000000      1.000000, Make: null, ID: soot_75_30_10, Quantity: TEMPERATURE
    71 Coords:      8.000000      3.000000      1.000000, Make: null, ID: soot_80_30_10, Quantity: TEMPERATURE
    72 Coords:      8.500000      3.000000      1.000000, Make: null, ID: soot_85_30_10, Quantity: TEMPERATURE
    73 Coords:      4.500000      3.000000      1.500000, Make: null, ID: soot_45_30_15, Quantity: TEMPERATURE
    74 Coords:      5.000000      3.000000      1.500000, Make: null, ID: soot_50_30_15, Quantity: TEMPERATURE
    75 Coords:      5.500000      3.000000      1.500000, Make: null, ID: soot_55_30_15, Quantity: TEMPERATURE
    76 Coords:      6.000000      3.000000      1.500000, Make: null, ID: soot_60_30_15, Quantity: TEMPERATURE
    77 Coords:      6.500000      3.000000      1.500000, Make: null, ID: soot_65_30_15, Quantity: TEMPERATURE
    78 Coords:      7.000000      3.000000      1.500000, Make: null, ID: soot_70_30_15, Quantity: TEMPERATURE
    79 Coords:      7.500000      3.000000      1.500000, Make: null, ID: soot_75_30_15, Quantity: TEMPERATURE
    80 Coords:      8.000000      3.000000      1.500000, Make: null, ID: soot_80_30_15, Quantity: TEMPERATURE
    81 Coords:      8.500000      3.000000      1.500000, Make: null, ID: soot_85_30_15, Quantity: TEMPERATURE
    82 Coords:      4.500000      3.000000      2.000000, Make: null, ID: soot_45_30_20, Quantity: TEMPERATURE
    83 Coords:      5.000000      3.000000      2.000000, Make: null, ID: soot_50_30_20, Quantity: TEMPERATURE
    84 Coords:      5.500000      3.000000      2.000000, Make: null, ID: soot_55_30_20, Quantity: TEMPERATURE
    85 Coords:      6.000000      3.000000      2.000000, Make: null, ID: soot_60_30_20, Quantity: TEMPERATURE
    86 Coords:      6.500000      3.000000      2.000000, Make: null, ID: soot_65_30_20, Quantity: TEMPERATURE
    87 Coords:      7.000000      3.000000      2.000000, Make: null, ID: soot_70_30_20, Quantity: TEMPERATURE
    88 Coords:      7.500000      3.000000      2.000000, Make: null, ID: soot_75_30_20, Quantity: TEMPERATURE
    89 Coords:      8.000000      3.000000      2.000000, Make: null, ID: soot_80_30_20, Quantity: TEMPERATURE
    90 Coords:      8.500000      3.000000      2.000000, Make: null, ID: soot_85_30_20, Quantity: TEMPERATURE
    91 Coords:      4.500000      3.000000      2.500000, Make: null, ID: soot_45_30_25, Quantity: TEMPERATURE
    92 Coords:      5.000000      3.000000      2.500000, Make: null, ID: soot_50_30_25, Quantity: TEMPERATURE
    93 Coords:      5.500000      3.000000      2.500000, Make: null, ID: soot_55_30_25, Quantity: TEMPERATURE
    94 Coords:      6.000000      3.000000      2.500000, Make: null, ID: soot_60_30_25, Quantity: TEMPERATURE
    95 Coords:      6.500000      3.000000      2.500000, Make: null, ID: soot_65_30_25, Quantity: TEMPERATURE
    96 Coords:      7.000000      3.000000      2.500000, Make: null, ID: soot_70_30_25, Quantity: TEMPERATURE
    97 Coords:      7.500000      3.000000      2.500000, Make: null, ID: soot_75_30_25, Quantity: TEMPERATURE
    98 Coords:      8.000000      3.000000      2.500000, Make: null, ID: soot_80_30_25, Quantity: TEMPERATURE
    99 Coords:      8.500000      3.000000      2.500000, Make: null, ID: soot_85_30_25, Quantity: TEMPERATURE
   100 Coords:      4.500000      3.000000      3.000000, Make: null, ID: soot_45_30_30, Quantity: TEMPERATURE
   101 Coords:      5.000000      3.000000      3.000000, Make: null, ID: soot_50_30_30, Quantity: TEMPERATURE
   102 Coords:      5.500000      3.000000      3.000000, Make: null, ID: soot_55_30_30, Quantity: TEMPERATURE
   103 Coords:      6.000000      3.000000      3.000000, Make: null, ID: soot_60_30_30, Quantity: TEMPERATURE
   104 Coords:      6.500000      3.000000      3.000000, Make: null, ID: soot_65_30_30, Quantity: TEMPERATURE
   105 Coords:      7.000000      3.000000      3.000000, Make: null, ID: soot_70_30_30, Quantity: TEMPERATURE
   106 Coords:      7.500000      3.000000      3.000000, Make: null, ID: soot_75_30_30, Quantity: TEMPERATURE
   107 Coords:      8.000000      3.000000      3.000000, Make: null, ID: soot_80_30_30, Quantity: TEMPERATURE
   108 Coords:      8.500000      3.000000      3.000000, Make: null, ID: soot_85_30_30, Quantity: TEMPERATURE
   109 Coords:      4.500000      3.500000      0.500000, Make: null, ID: soot_45_35_05, Quantity: TEMPERATURE
   110 Coords:      5.000000      3.500000      0.500000, Make: null, ID: soot_50_35_05, Quantity: TEMPERATURE
   111 Coords:      5.500000      3.500000      0.500000, Make: null, ID: soot_55_35_05, Quantity: TEMPERATURE
   112 Coords:      6.000000      3.500000      0.500000, Make: null, ID: soot_60_35_05, Quantity: TEMPERATURE
   113 Coords:      6.500000      3.500000      0.500000, Make: null, ID: soot_65_35_05, Quantity: TEMPERATURE
   114 Coords:      7.000000      3.500000      0.500000, Make: null, ID: soot_70_35_05, Quantity: TEMPERATURE
   115 Coords:      7.500000      3.500000      0.500000, Make: null, ID: soot_75_35_05, Quantity: TEMPERATURE
   116 Coords:      8.000000      3.500000      0.500000, Make: null, ID: soot_80_35_05, Quantity: TEMPERATURE
   117 Coords:      8.500000      3.500000      0.500000, Make: null, ID: soot_85_35_05, Quantity: TEMPERATURE
   118 Coords:      4.500000      3.500000      1.000000, Make: null, ID: soot_45_35_10, Quantity: TEMPERATURE
   119 Coords:      5.000000      3.500000      1.000000, Make: null, ID: soot_50_35_10, Quantity: TEMPERATURE
   120 Coords:      5.500000      3.500000      1.000000, Make: null, ID: soot_55_35_10, Quantity: TEMPERATURE
   121 Coords:      6.000000      3.500000      1.000000, Make: null, ID: soot_60_35_10, Quantity: TEMPERATURE
   122 Coords:      6.500000      3.500000      1.000000, Make: null, ID: soot_65_35_10, Quantity: TEMPERATURE
   123 Coords:      7.000000      3.500000      1.000000, Make: null, ID: soot_70_35_10, Quantity: TEMPERATURE
   124 Coords:      7.500000      3.500000      1.000000, Make: null, ID: soot_75_35_10, Quantity: TEMPERATURE
   125 Coords:      8.000000      3.500000      1.000000, Make: null, ID: soot_80_35_10, Quantity: TEMPERATURE
   126 Coords:      8.500000      3.500000      1.000000, Make: null, ID: soot_85_35_10, Quantity: TEMPERATURE
   127 Coords:      4.500000      3.500000      1.500000, Make: null, ID: soot_45_35_15, Quantity: TEMPERATURE
   128 Coords:      5.000000      3.500000      1.500000, Make: null, ID: soot_50_35_15, Quantity: TEMPERATURE
   129 Coords:      5.500000      3.500000      1.500000, Make: null, ID: soot_55_35_15, Quantity: TEMPERATURE
   130 Coords:      6.000000      3.500000      1.500000, Make: null, ID: soot_60_35_15, Quantity: TEMPERATURE
   131 Coords:      6.500000      3.500000      1.500000, Make: null, ID: soot_65_35_15, Quantity: TEMPERATURE
   132 Coords:      7.000000      3.500000      1.500000, Make: null, ID: soot_70_35_15, Quantity: TEMPERATURE
   133 Coords:      7.500000      3.500000      1.500000, Make: null, ID: soot_75_35_15, Quantity: TEMPERATURE
   134 Coords:      8.000000      3.500000      1.500000, Make: null, ID: soot_80_35_15, Quantity: TEMPERATURE
   135 Coords:      8.500000      3.500000      1.500000, Make: null, ID: soot_85_35_15, Quantity: TEMPERATURE
   136 Coords:      4.500000      3.500000      2.000000, Make: null, ID: soot_45_35_20, Quantity: TEMPERATURE
   137 Coords:      5.000000      3.500000      2.000000, Make: null, ID: soot_50_35_20, Quantity: TEMPERATURE
   138 Coords:      5.500000      3.500000      2.000000, Make: null, ID: soot_55_35_20, Quantity: TEMPERATURE
   139 Coords:      6.000000      3.500000      2.000000, Make: null, ID: soot_60_35_20, Quantity: TEMPERATURE
   140 Coords:      6.500000      3.500000      2.000000, Make: null, ID: soot_65_35_20, Quantity: TEMPERATURE
   141 Coords:      7.000000      3.500000      2.000000, Make: null, ID: soot_70_35_20, Quantity: TEMPERATURE
   142 Coords:      7.500000      3.500000      2.000000, Make: null, ID: soot_75_35_20, Quantity: TEMPERATURE
   143 Coords:      8.000000      3.500000      2.000000, Make: null, ID: soot_80_35_20, Quantity: TEMPERATURE
   144 Coords:      8.500000      3.500000      2.000000, Make: null, ID: soot_85_35_20, Quantity: TEMPERATURE
   145 Coords:      4.500000      3.500000      2.500000, Make: null, ID: soot_45_35_25, Quantity: TEMPERATURE
   146 Coords:      5.000000      3.500000      2.500000, Make: null, ID: soot_50_35_25, Quantity: TEMPERATURE
   147 Coords:      5.500000      3.500000      2.500000, Make: null, ID: soot_55_35_25, Quantity: TEMPERATURE
   148 Coords:      6.000000      3.500000      2.500000, Make: null, ID: soot_60_35_25, Quantity: TEMPERATURE
   149 Coords:      6.500000      3.500000      2.500000, Make: null, ID: soot_65_35_25, Quantity: TEMPERATURE
   150 Coords:      7.000000      3.500000      2.500000, Make: null, ID: soot_70_35_25, Quantity: TEMPERATURE
   151 Coords:      7.500000      3.500000      2.500000, Make: null, ID: soot_75_35_25, Quantity: TEMPERATURE
   152 Coords:      8.000000      3.500000      2.500000, Make: null, ID: soot_80_35_25, Quantity: TEMPERATURE
   153 Coords:      8.500000      3.500000      2.500000, Make: null, ID: soot_85_35_25, Quantity: TEMPERATURE
   154 Coords:      4.500000      3.500000      3.000000, Make: null, ID: soot_45_35_30, Quantity: TEMPERATURE
   155 Coords:      5.000000      3.500000      3.000000, Make: null, ID: soot_50_35_30, Quantity: TEMPERATURE
   156 Coords:      5.500000      3.500000      3.000000, Make: null, ID: soot_55_35_30, Quantity: TEMPERATURE
   157 Coords:      6.000000      3.500000      3.000000, Make: null, ID: soot_60_35_30, Quantity: TEMPERATURE
   158 Coords:      6.500000      3.500000      3.000000, Make: null, ID: soot_65_35_30, Quantity: TEMPERATURE
   159 Coords:      7.000000      3.500000      3.000000, Make: null, ID: soot_70_35_30, Quantity: TEMPERATURE
   160 Coords:      7.500000      3.500000      3.000000, Make: null, ID: soot_75_35_30, Quantity: TEMPERATURE
   161 Coords:      8.000000      3.500000      3.000000, Make: null, ID: soot_80_35_30, Quantity: TEMPERATURE
   162 Coords:      8.500000      3.500000      3.000000, Make: null, ID: soot_85_35_30, Quantity: TEMPERATURE
   163 Coords:      4.500000      4.000000      0.500000, Make: null, ID: soot_45_40_05, Quantity: TEMPERATURE
   164 Coords:      5.000000      4.000000      0.500000, Make: null, ID: soot_50_40_05, Quantity: TEMPERATURE
   165 Coords:      5.500000      4.000000      0.500000, Make: null, ID: soot_55_40_05, Quantity: TEMPERATURE
   166 Coords:      6.000000      4.000000      0.500000, Make: null, ID: soot_60_40_05, Quantity: TEMPERATURE
   167 Coords:      6.500000      4.000000      0.500000, Make: null, ID: soot_65_40_05, Quantity: TEMPERATURE
   168 Coords:      7.000000      4.000000      0.500000, Make: null, ID: soot_70_40_05, Quantity: TEMPERATURE
   169 Coords:      7.500000      4.000000      0.500000, Make: null, ID: soot_75_40_05, Quantity: TEMPERATURE
   170 Coords:      8.000000      4.000000      0.500000, Make: null, ID: soot_80_40_05, Quantity: TEMPERATURE
   171 Coords:      8.500000      4.000000      0.500000, Make: null, ID: soot_85_40_05, Quantity: TEMPERATURE
   172 Coords:      4.500000      4.000000      1.000000, Make: null, ID: soot_45_40_10, Quantity: TEMPERATURE
   173 Coords:      5.000000      4.000000      1.000000, Make: null, ID: soot_50_40_10, Quantity: TEMPERATURE
   174 Coords:      5.500000      4.000000      1.000000, Make: null, ID: soot_55_40_10, Quantity: TEMPERATURE
   175 Coords:      6.000000      4.000000      1.000000, Make: null, ID: soot_60_40_10, Quantity: TEMPERATURE
   176 Coords:      6.500000      4.000000      1.000000, Make: null, ID: soot_65_40_10, Quantity: TEMPERATURE
   177 Coords:      7.000000      4.000000      1.000000, Make: null, ID: soot_70_40_10, Quantity: TEMPERATURE
   178 Coords:      7.500000      4.000000      1.000000, Make: null, ID: soot_75_40_10, Quantity: TEMPERATURE
   179 Coords:      8.000000      4.000000      1.000000, Make: null, ID: soot_80_40_10, Quantity: TEMPERATURE
   180 Coords:      8.500000      4.000000      1.000000, Make: null, ID: soot_85_40_10, Quantity: TEMPERATURE
   181 Coords:      4.500000      4.000000      1.500000, Make: null, ID: soot_45_40_15, Quantity: TEMPERATURE
   182 Coords:      5.000000      4.000000      1.500000, Make: null, ID: soot_50_40_15, Quantity: TEMPERATURE
   183 Coords:      5.500000      4.000000      1.500000, Make: null, ID: soot_55_40_15, Quantity: TEMPERATURE
   184 Coords:      6.000000      4.000000      1.500000, Make: null, ID: soot_60_40_15, Quantity: TEMPERATURE
   185 Coords:      6.500000      4.000000      1.500000, Make: null, ID: soot_65_40_15, Quantity: TEMPERATURE
   186 Coords:      7.000000      4.000000      1.500000, Make: null, ID: soot_70_40_15, Quantity: TEMPERATURE
   187 Coords:      7.500000      4.000000      1.500000, Make: null, ID: soot_75_40_15, Quantity: TEMPERATURE
   188 Coords:      8.000000      4.000000      1.500000, Make: null, ID: soot_80_40_15, Quantity: TEMPERATURE
   189 Coords:      8.500000      4.000000      1.500000, Make: null, ID: soot_85_40_15, Quantity: TEMPERATURE
   190 Coords:      4.500000      4.000000      2.000000, Make: null, ID: soot_45_40_20, Quantity: TEMPERATURE
   191 Coords:      5.000000      4.000000      2.000000, Make: null, ID: soot_50_40_20, Quantity: TEMPERATURE
   192 Coords:      5.500000      4.000000      2.000000, Make: null, ID: soot_55_40_20, Quantity: TEMPERATURE
   193 Coords:      6.000000      4.000000      2.000000, Make: null, ID: soot_60_40_20, Quantity: TEMPERATURE
   194 Coords:      6.500000      4.000000      2.000000, Make: null, ID: soot_65_40_20, Quantity: TEMPERATURE
   195 Coords:      7.000000      4.000000      2.000000, Make: null, ID: soot_70_40_20, Quantity: TEMPERATURE
   196 Coords:      7.500000      4.000000      2.000000, Make: null, ID: soot_75_40_20, Quantity: TEMPERATURE
   197 Coords:      8.000000      4.000000      2.000000, Make: null, ID: soot_80_40_20, Quantity: TEMPERATURE
   198 Coords:      8.500000      4.000000      2.000000, Make: null, ID: soot_85_40_20, Quantity: TEMPERATURE
   199 Coords:      4.500000      4.000000      2.500000, Make: null, ID: soot_45_40_25, Quantity: TEMPERATURE
   200 Coords:      5.000000      4.000000      2.500000, Make: null, ID: soot_50_40_25, Quantity: TEMPERATURE
   201 Coords:      5.500000      4.000000      2.500000, Make: null, ID: soot_55_40_25, Quantity: TEMPERATURE
   202 Coords:      6.000000      4.000000      2.500000, Make: null, ID: soot_60_40_25, Quantity: TEMPERATURE
   203 Coords:      6.500000      4.000000      2.500000, Make: null, ID: soot_65_40_25, Quantity: TEMPERATURE
   204 Coords:      7.000000      4.000000      2.500000, Make: null, ID: soot_70_40_25, Quantity: TEMPERATURE
   205 Coords:      7.500000      4.000000      2.500000, Make: null, ID: soot_75_40_25, Quantity: TEMPERATURE
   206 Coords:      8.000000      4.000000      2.500000, Make: null, ID: soot_80_40_25, Quantity: TEMPERATURE
   207 Coords:      8.500000      4.000000      2.500000, Make: null, ID: soot_85_40_25, Quantity: TEMPERATURE
   208 Coords:      4.500000      4.000000      3.000000, Make: null, ID: soot_45_40_30, Quantity: TEMPERATURE
   209 Coords:      5.000000      4.000000      3.000000, Make: null, ID: soot_50_40_30, Quantity: TEMPERATURE
   210 Coords:      5.500000      4.000000      3.000000, Make: null, ID: soot_55_40_30, Quantity: TEMPERATURE
   211 Coords:      6.000000      4.000000      3.000000, Make: null, ID: soot_60_40_30, Quantity: TEMPERATURE
   212 Coords:      6.500000      4.000000      3.000000, Make: null, ID: soot_65_40_30, Quantity: TEMPERATURE
   213 Coords:      7.000000      4.000000      3.000000, Make: null, ID: soot_70_40_30, Quantity: TEMPERATURE
   214 Coords:      7.500000      4.000000      3.000000, Make: null, ID: soot_75_40_30, Quantity: TEMPERATURE
   215 Coords:      8.000000      4.000000      3.000000, Make: null, ID: soot_80_40_30, Quantity: TEMPERATURE
   216 Coords:      8.500000      4.000000      3.000000, Make: null, ID: soot_85_40_30, Quantity: TEMPERATURE
   217 Coords:      4.500000      4.500000      0.500000, Make: null, ID: soot_45_45_05, Quantity: TEMPERATURE
   218 Coords:      5.000000      4.500000      0.500000, Make: null, ID: soot_50_45_05, Quantity: TEMPERATURE
   219 Coords:      5.500000      4.500000      0.500000, Make: null, ID: soot_55_45_05, Quantity: TEMPERATURE
   220 Coords:      6.000000      4.500000      0.500000, Make: null, ID: soot_60_45_05, Quantity: TEMPERATURE
   221 Coords:      6.500000      4.500000      0.500000, Make: null, ID: soot_65_45_05, Quantity: TEMPERATURE
   222 Coords:      7.000000      4.500000      0.500000, Make: null, ID: soot_70_45_05, Quantity: TEMPERATURE
   223 Coords:      7.500000      4.500000      0.500000, Make: null, ID: soot_75_45_05, Quantity: TEMPERATURE
   224 Coords:      8.000000      4.500000      0.500000, Make: null, ID: soot_80_45_05, Quantity: TEMPERATURE
   225 Coords:      8.500000      4.500000      0.500000, Make: null, ID: soot_85_45_05, Quantity: TEMPERATURE
   226 Coords:      4.500000      4.500000      1.000000, Make: null, ID: soot_45_45_10, Quantity: TEMPERATURE
   227 Coords:      5.000000      4.500000      1.000000, Make: null, ID: soot_50_45_10, Quantity: TEMPERATURE
   228 Coords:      5.500000      4.500000      1.000000, Make: null, ID: soot_55_45_10, Quantity: TEMPERATURE
   229 Coords:      6.000000      4.500000      1.000000, Make: null, ID: soot_60_45_10, Quantity: TEMPERATURE
   230 Coords:      6.500000      4.500000      1.000000, Make: null, ID: soot_65_45_10, Quantity: TEMPERATURE
   231 Coords:      7.000000      4.500000      1.000000, Make: null, ID: soot_70_45_10, Quantity: TEMPERATURE
   232 Coords:      7.500000      4.500000      1.000000, Make: null, ID: soot_75_45_10, Quantity: TEMPERATURE
   233 Coords:      8.000000      4.500000      1.000000, Make: null, ID: soot_80_45_10, Quantity: TEMPERATURE
   234 Coords:      8.500000      4.500000      1.000000, Make: null, ID: soot_85_45_10, Quantity: TEMPERATURE
   235 Coords:      4.500000      4.500000      1.500000, Make: null, ID: soot_45_45_15, Quantity: TEMPERATURE
   236 Coords:      5.000000      4.500000      1.500000, Make: null, ID: soot_50_45_15, Quantity: TEMPERATURE
   237 Coords:      5.500000      4.500000      1.500000, Make: null, ID: soot_55_45_15, Quantity: TEMPERATURE
   238 Coords:      6.000000      4.500000      1.500000, Make: null, ID: soot_60_45_15, Quantity: TEMPERATURE
   239 Coords:      6.500000      4.500000      1.500000, Make: null, ID: soot_65_45_15, Quantity: TEMPERATURE
   240 Coords:      7.000000      4.500000      1.500000, Make: null, ID: soot_70_45_15, Quantity: TEMPERATURE
   241 Coords:      7.500000      4.500000      1.500000, Make: null, ID: soot_75_45_15, Quantity: TEMPERATURE
   242 Coords:      8.000000      4.500000      1.500000, Make: null, ID: soot_80_45_15, Quantity: TEMPERATURE
   243 Coords:      8.500000      4.500000      1.500000, Make: null, ID: soot_85_45_15, Quantity: TEMPERATURE
   244 Coords:      4.500000      4.500000      2.000000, Make: null, ID: soot_45_45_20, Quantity: TEMPERATURE
   245 Coords:      5.000000      4.500000      2.000000, Make: null, ID: soot_50_45_20, Quantity: TEMPERATURE
   246 Coords:      5.500000      4.500000      2.000000, Make: null, ID: soot_55_45_20, Quantity: TEMPERATURE
   247 Coords:      6.000000      4.500000      2.000000, Make: null, ID: soot_60_45_20, Quantity: TEMPERATURE
   248 Coords:      6.500000      4.500000      2.000000, Make: null, ID: soot_65_45_20, Quantity: TEMPERATURE
   249 Coords:      7.000000      4.500000      2.000000, Make: null, ID: soot_70_45_20, Quantity: TEMPERATURE
   250 Coords:      7.500000      4.500000      2.000000, Make: null, ID: soot_75_45_20, Quantity: TEMPERATURE
   251 Coords:      8.000000      4.500000      2.000000, Make: null, ID: soot_80_45_20, Quantity: TEMPERATURE
   252 Coords:      8.500000      4.500000      2.000000, Make: null, ID: soot_85_45_20, Quantity: TEMPERATURE
   253 Coords:      4.500000      4.500000      2.500000, Make: null, ID: soot_45_45_25, Quantity: TEMPERATURE
   254 Coords:      5.000000      4.500000      2.500000, Make: null, ID: soot_50_45_25, Quantity: TEMPERATURE
   255 Coords:      5.500000      4.500000      2.500000, Make: null, ID: soot_55_45_25, Quantity: TEMPERATURE
   256 Coords:      6.000000      4.500000      2.500000, Make: null, ID: soot_60_45_25, Quantity: TEMPERATURE
   257 Coords:      6.500000      4.500000      2.500000, Make: null, ID: soot_65_45_25, Quantity: TEMPERATURE
   258 Coords:      7.000000      4.500000      2.500000, Make: null, ID: soot_70_45_25, Quantity: TEMPERATURE
   259 Coords:      7.500000      4.500000      2.500000, Make: null, ID: soot_75_45_25, Quantity: TEMPERATURE
   260 Coords:      8.000000      4.500000      2.500000, Make: null, ID: soot_80_45_25, Quantity: TEMPERATURE
   261 Coords:      8.500000      4.500000      2.500000, Make: null, ID: soot_85_45_25, Quantity: TEMPERATURE
   262 Coords:      4.500000      4.500000      3.000000, Make: null, ID: soot_45_45_30, Quantity: TEMPERATURE
   263 Coords:      5.000000      4.500000      3.000000, Make: null, ID: soot_50_45_30, Quantity: TEMPERATURE
   264 Coords:      5.500000      4.500000      3.000000, Make: null, ID: soot_55_45_30, Quantity: TEMPERATURE
   265 Coords:      6.000000      4.500000      3.000000, Make: null, ID: soot_60_45_30, Quantity: TEMPERATURE
   266 Coords:      6.500000      4.500000      3.000000, Make: null, ID: soot_65_45_30, Quantity: TEMPERATURE
   267 Coords:      7.000000      4.500000      3.000000, Make: null, ID: soot_70_45_30, Quantity: TEMPERATURE
   268 Coords:      7.500000      4.500000      3.000000, Make: null, ID: soot_75_45_30, Quantity: TEMPERATURE
   269 Coords:      8.000000      4.500000      3.000000, Make: null, ID: soot_80_45_30, Quantity: TEMPERATURE
   270 Coords:      8.500000      4.500000      3.000000, Make: null, ID: soot_85_45_30, Quantity: TEMPERATURE
   271 Coords:      4.500000      5.000000      0.500000, Make: null, ID: soot_45_50_05, Quantity: TEMPERATURE
   272 Coords:      5.000000      5.000000      0.500000, Make: null, ID: soot_50_50_05, Quantity: TEMPERATURE
   273 Coords:      5.500000      5.000000      0.500000, Make: null, ID: soot_55_50_05, Quantity: TEMPERATURE
   274 Coords:      6.000000      5.000000      0.500000, Make: null, ID: soot_60_50_05, Quantity: TEMPERATURE
   275 Coords:      6.500000      5.000000      0.500000, Make: null, ID: soot_65_50_05, Quantity: TEMPERATURE
   276 Coords:      7.000000      5.000000      0.500000, Make: null, ID: soot_70_50_05, Quantity: TEMPERATURE
   277 Coords:      7.500000      5.000000      0.500000, Make: null, ID: soot_75_50_05, Quantity: TEMPERATURE
   278 Coords:      8.000000      5.000000      0.500000, Make: null, ID: soot_80_50_05, Quantity: TEMPERATURE
   279 Coords:      8.500000      5.000000      0.500000, Make: null, ID: soot_85_50_05, Quantity: TEMPERATURE
   280 Coords:      4.500000      5.000000      1.000000, Make: null, ID: soot_45_50_10, Quantity: TEMPERATURE
   281 Coords:      5.000000      5.000000      1.000000, Make: null, ID: soot_50_50_10, Quantity: TEMPERATURE
   282 Coords:      5.500000      5.000000      1.000000, Make: null, ID: soot_55_50_10, Quantity: TEMPERATURE
   283 Coords:      6.000000      5.000000      1.000000, Make: null, ID: soot_60_50_10, Quantity: TEMPERATURE
   284 Coords:      6.500000      5.000000      1.000000, Make: null, ID: soot_65_50_10, Quantity: TEMPERATURE
   285 Coords:      7.000000      5.000000      1.000000, Make: null, ID: soot_70_50_10, Quantity: TEMPERATURE
   286 Coords:      7.500000      5.000000      1.000000, Make: null, ID: soot_75_50_10, Quantity: TEMPERATURE
   287 Coords:      8.000000      5.000000      1.000000, Make: null, ID: soot_80_50_10, Quantity: TEMPERATURE
   288 Coords:      8.500000      5.000000      1.000000, Make: null, ID: soot_85_50_10, Quantity: TEMPERATURE
   289 Coords:      4.500000      5.000000      1.500000, Make: null, ID: soot_45_50_15, Quantity: TEMPERATURE
   290 Coords:      5.000000      5.000000      1.500000, Make: null, ID: soot_50_50_15, Quantity: TEMPERATURE
   291 Coords:      5.500000      5.000000      1.500000, Make: null, ID: soot_55_50_15, Quantity: TEMPERATURE
   292 Coords:      6.000000      5.000000      1.500000, Make: null, ID: soot_60_50_15, Quantity: TEMPERATURE
   293 Coords:      6.500000      5.000000      1.500000, Make: null, ID: soot_65_50_15, Quantity: TEMPERATURE
   294 Coords:      7.000000      5.000000      1.500000, Make: null, ID: soot_70_50_15, Quantity: TEMPERATURE
   295 Coords:      7.500000      5.000000      1.500000, Make: null, ID: soot_75_50_15, Quantity: TEMPERATURE
   296 Coords:      8.000000      5.000000      1.500000, Make: null, ID: soot_80_50_15, Quantity: TEMPERATURE
   297 Coords:      8.500000      5.000000      1.500000, Make: null, ID: soot_85_50_15, Quantity: TEMPERATURE
   298 Coords:      4.500000      5.000000      2.000000, Make: null, ID: soot_45_50_20, Quantity: TEMPERATURE
   299 Coords:      5.000000      5.000000      2.000000, Make: null, ID: soot_50_50_20, Quantity: TEMPERATURE
   300 Coords:      5.500000      5.000000      2.000000, Make: null, ID: soot_55_50_20, Quantity: TEMPERATURE
   301 Coords:      6.000000      5.000000      2.000000, Make: null, ID: soot_60_50_20, Quantity: TEMPERATURE
   302 Coords:      6.500000      5.000000      2.000000, Make: null, ID: soot_65_50_20, Quantity: TEMPERATURE
   303 Coords:      7.000000      5.000000      2.000000, Make: null, ID: soot_70_50_20, Quantity: TEMPERATURE
   304 Coords:      7.500000      5.000000      2.000000, Make: null, ID: soot_75_50_20, Quantity: TEMPERATURE
   305 Coords:      8.000000      5.000000      2.000000, Make: null, ID: soot_80_50_20, Quantity: TEMPERATURE
   306 Coords:      8.500000      5.000000      2.000000, Make: null, ID: soot_85_50_20, Quantity: TEMPERATURE
   307 Coords:      4.500000      5.000000      2.500000, Make: null, ID: soot_45_50_25, Quantity: TEMPERATURE
   308 Coords:      5.000000      5.000000      2.500000, Make: null, ID: soot_50_50_25, Quantity: TEMPERATURE
   309 Coords:      5.500000      5.000000      2.500000, Make: null, ID: soot_55_50_25, Quantity: TEMPERATURE
   310 Coords:      6.000000      5.000000      2.500000, Make: null, ID: soot_60_50_25, Quantity: TEMPERATURE
   311 Coords:      6.500000      5.000000      2.500000, Make: null, ID: soot_65_50_25, Quantity: TEMPERATURE
   312 Coords:      7.000000      5.000000      2.500000, Make: null, ID: soot_70_50_25, Quantity: TEMPERATURE
   313 Coords:      7.500000      5.000000      2.500000, Make: null, ID: soot_75_50_25, Quantity: TEMPERATURE
   314 Coords:      8.000000      5.000000      2.500000, Make: null, ID: soot_80_50_25, Quantity: TEMPERATURE
   315 Coords:      8.500000      5.000000      2.500000, Make: null, ID: soot_85_50_25, Quantity: TEMPERATURE
   316 Coords:      4.500000      5.000000      3.000000, Make: null, ID: soot_45_50_30, Quantity: TEMPERATURE
   317 Coords:      5.000000      5.000000      3.000000, Make: null, ID: soot_50_50_30, Quantity: TEMPERATURE
   318 Coords:      5.500000      5.000000      3.000000, Make: null, ID: soot_55_50_30, Quantity: TEMPERATURE
   319 Coords:      6.000000      5.000000      3.000000, Make: null, ID: soot_60_50_30, Quantity: TEMPERATURE
   320 Coords:      6.500000      5.000000      3.000000, Make: null, ID: soot_65_50_30, Quantity: TEMPERATURE
   321 Coords:      7.000000      5.000000      3.000000, Make: null, ID: soot_70_50_30, Quantity: TEMPERATURE
   322 Coords:      7.500000      5.000000      3.000000, Make: null, ID: soot_75_50_30, Quantity: TEMPERATURE
   323 Coords:      8.000000      5.000000      3.000000, Make: null, ID: soot_80_50_30, Quantity: TEMPERATURE
   324 Coords:      8.500000      5.000000      3.000000, Make: null, ID: soot_85_50_30, Quantity: TEMPERATURE
   325 Coords:      4.500000      5.500000      0.500000, Make: null, ID: soot_45_55_05, Quantity: TEMPERATURE
   326 Coords:      5.000000      5.500000      0.500000, Make: null, ID: soot_50_55_05, Quantity: TEMPERATURE
   327 Coords:      5.500000      5.500000      0.500000, Make: null, ID: soot_55_55_05, Quantity: TEMPERATURE
   328 Coords:      6.000000      5.500000      0.500000, Make: null, ID: soot_60_55_05, Quantity: TEMPERATURE
   329 Coords:      6.500000      5.500000      0.500000, Make: null, ID: soot_65_55_05, Quantity: TEMPERATURE
   330 Coords:      7.000000      5.500000      0.500000, Make: null, ID: soot_70_55_05, Quantity: TEMPERATURE
   331 Coords:      7.500000      5.500000      0.500000, Make: null, ID: soot_75_55_05, Quantity: TEMPERATURE
   332 Coords:      8.000000      5.500000      0.500000, Make: null, ID: soot_80_55_05, Quantity: TEMPERATURE
   333 Coords:      8.500000      5.500000      0.500000, Make: null, ID: soot_85_55_05, Quantity: TEMPERATURE
   334 Coords:      4.500000      5.500000      1.000000, Make: null, ID: soot_45_55_10, Quantity: TEMPERATURE
   335 Coords:      5.000000      5.500000      1.000000, Make: null, ID: soot_50_55_10, Quantity: TEMPERATURE
   336 Coords:      5.500000      5.500000      1.000000, Make: null, ID: soot_55_55_10, Quantity: TEMPERATURE
   337 Coords:      6.000000      5.500000      1.000000, Make: null, ID: soot_60_55_10, Quantity: TEMPERATURE
   338 Coords:      6.500000      5.500000      1.000000, Make: null, ID: soot_65_55_10, Quantity: TEMPERATURE
   339 Coords:      7.000000      5.500000      1.000000, Make: null, ID: soot_70_55_10, Quantity: TEMPERATURE
   340 Coords:      7.500000      5.500000      1.000000, Make: null, ID: soot_75_55_10, Quantity: TEMPERATURE
   341 Coords:      8.000000      5.500000      1.000000, Make: null, ID: soot_80_55_10, Quantity: TEMPERATURE
   342 Coords:      8.500000      5.500000      1.000000, Make: null, ID: soot_85_55_10, Quantity: TEMPERATURE
   343 Coords:      4.500000      5.500000      1.500000, Make: null, ID: soot_45_55_15, Quantity: TEMPERATURE
   344 Coords:      5.000000      5.500000      1.500000, Make: null, ID: soot_50_55_15, Quantity: TEMPERATURE
   345 Coords:      5.500000      5.500000      1.500000, Make: null, ID: soot_55_55_15, Quantity: TEMPERATURE
   346 Coords:      6.000000      5.500000      1.500000, Make: null, ID: soot_60_55_15, Quantity: TEMPERATURE
   347 Coords:      6.500000      5.500000      1.500000, Make: null, ID: soot_65_55_15, Quantity: TEMPERATURE
   348 Coords:      7.000000      5.500000      1.500000, Make: null, ID: soot_70_55_15, Quantity: TEMPERATURE
   349 Coords:      7.500000      5.500000      1.500000, Make: null, ID: soot_75_55_15, Quantity: TEMPERATURE
   350 Coords:      8.000000      5.500000      1.500000, Make: null, ID: soot_80_55_15, Quantity: TEMPERATURE
   351 Coords:      8.500000      5.500000      1.500000, Make: null, ID: soot_85_55_15, Quantity: TEMPERATURE
   352 Coords:      4.500000      5.500000      2.000000, Make: null, ID: soot_45_55_20, Quantity: TEMPERATURE
   353 Coords:      5.000000      5.500000      2.000000, Make: null, ID: soot_50_55_20, Quantity: TEMPERATURE
   354 Coords:      5.500000      5.500000      2.000000, Make: null, ID: soot_55_55_20, Quantity: TEMPERATURE
   355 Coords:      6.000000      5.500000      2.000000, Make: null, ID: soot_60_55_20, Quantity: TEMPERATURE
   356 Coords:      6.500000      5.500000      2.000000, Make: null, ID: soot_65_55_20, Quantity: TEMPERATURE
   357 Coords:      7.000000      5.500000      2.000000, Make: null, ID: soot_70_55_20, Quantity: TEMPERATURE
   358 Coords:      7.500000      5.500000      2.000000, Make: null, ID: soot_75_55_20, Quantity: TEMPERATURE
   359 Coords:      8.000000      5.500000      2.000000, Make: null, ID: soot_80_55_20, Quantity: TEMPERATURE
   360 Coords:      8.500000      5.500000      2.000000, Make: null, ID: soot_85_55_20, Quantity: TEMPERATURE
   361 Coords:      4.500000      5.500000      2.500000, Make: null, ID: soot_45_55_25, Quantity: TEMPERATURE
   362 Coords:      5.000000      5.500000      2.500000, Make: null, ID: soot_50_55_25, Quantity: TEMPERATURE
   363 Coords:      5.500000      5.500000      2.500000, Make: null, ID: soot_55_55_25, Quantity: TEMPERATURE
   364 Coords:      6.000000      5.500000      2.500000, Make: null, ID: soot_60_55_25, Quantity: TEMPERATURE
   365 Coords:      6.500000      5.500000      2.500000, Make: null, ID: soot_65_55_25, Quantity: TEMPERATURE
   366 Coords:      7.000000      5.500000      2.500000, Make: null, ID: soot_70_55_25, Quantity: TEMPERATURE
   367 Coords:      7.500000      5.500000      2.500000, Make: null, ID: soot_75_55_25, Quantity: TEMPERATURE
   368 Coords:      8.000000      5.500000      2.500000, Make: null, ID: soot_80_55_25, Quantity: TEMPERATURE
   369 Coords:      8.500000      5.500000      2.500000, Make: null, ID: soot_85_55_25, Quantity: TEMPERATURE
   370 Coords:      4.500000      5.500000      3.000000, Make: null, ID: soot_45_55_30, Quantity: TEMPERATURE
   371 Coords:      5.000000      5.500000      3.000000, Make: null, ID: soot_50_55_30, Quantity: TEMPERATURE
   372 Coords:      5.500000      5.500000      3.000000, Make: null, ID: soot_55_55_30, Quantity: TEMPERATURE
   373 Coords:      6.000000      5.500000      3.000000, Make: null, ID: soot_60_55_30, Quantity: TEMPERATURE
   374 Coords:      6.500000      5.500000      3.000000, Make: null, ID: soot_65_55_30, Quantity: TEMPERATURE
   375 Coords:      7.000000      5.500000      3.000000, Make: null, ID: soot_70_55_30, Quantity: TEMPERATURE
   376 Coords:      7.500000      5.500000      3.000000, Make: null, ID: soot_75_55_30, Quantity: TEMPERATURE
   377 Coords:      8.000000      5.500000      3.000000, Make: null, ID: soot_80_55_30, Quantity: TEMPERATURE
   378 Coords:      8.500000      5.500000      3.000000, Make: null, ID: soot_85_55_30, Quantity: TEMPERATURE
   379 Coords:      4.500000      6.000000      0.500000, Make: null, ID: soot_45_60_05, Quantity: TEMPERATURE
   380 Coords:      5.000000      6.000000      0.500000, Make: null, ID: soot_50_60_05, Quantity: TEMPERATURE
   381 Coords:      5.500000      6.000000      0.500000, Make: null, ID: soot_55_60_05, Quantity: TEMPERATURE
   382 Coords:      6.000000      6.000000      0.500000, Make: null, ID: soot_60_60_05, Quantity: TEMPERATURE
   383 Coords:      6.500000      6.000000      0.500000, Make: null, ID: soot_65_60_05, Quantity: TEMPERATURE
   384 Coords:      7.000000      6.000000      0.500000, Make: null, ID: soot_70_60_05, Quantity: TEMPERATURE
   385 Coords:      7.500000      6.000000      0.500000, Make: null, ID: soot_75_60_05, Quantity: TEMPERATURE
   386 Coords:      8.000000      6.000000      0.500000, Make: null, ID: soot_80_60_05, Quantity: TEMPERATURE
   387 Coords:      8.500000      6.000000      0.500000, Make: null, ID: soot_85_60_05, Quantity: TEMPERATURE
   388 Coords:      4.500000      6.000000      1.000000, Make: null, ID: soot_45_60_10, Quantity: TEMPERATURE
   389 Coords:      5.000000      6.000000      1.000000, Make: null, ID: soot_50_60_10, Quantity: TEMPERATURE
   390 Coords:      5.500000      6.000000      1.000000, Make: null, ID: soot_55_60_10, Quantity: TEMPERATURE
   391 Coords:      6.000000      6.000000      1.000000, Make: null, ID: soot_60_60_10, Quantity: TEMPERATURE
   392 Coords:      6.500000      6.000000      1.000000, Make: null, ID: soot_65_60_10, Quantity: TEMPERATURE
   393 Coords:      7.000000      6.000000      1.000000, Make: null, ID: soot_70_60_10, Quantity: TEMPERATURE
   394 Coords:      7.500000      6.000000      1.000000, Make: null, ID: soot_75_60_10, Quantity: TEMPERATURE
   395 Coords:      8.000000      6.000000      1.000000, Make: null, ID: soot_80_60_10, Quantity: TEMPERATURE
   396 Coords:      8.500000      6.000000      1.000000, Make: null, ID: soot_85_60_10, Quantity: TEMPERATURE
   397 Coords:      4.500000      6.000000      1.500000, Make: null, ID: soot_45_60_15, Quantity: TEMPERATURE
   398 Coords:      5.000000      6.000000      1.500000, Make: null, ID: soot_50_60_15, Quantity: TEMPERATURE
   399 Coords:      5.500000      6.000000      1.500000, Make: null, ID: soot_55_60_15, Quantity: TEMPERATURE
   400 Coords:      6.000000      6.000000      1.500000, Make: null, ID: soot_60_60_15, Quantity: TEMPERATURE
   401 Coords:      6.500000      6.000000      1.500000, Make: null, ID: soot_65_60_15, Quantity: TEMPERATURE
   402 Coords:      7.000000      6.000000      1.500000, Make: null, ID: soot_70_60_15, Quantity: TEMPERATURE
   403 Coords:      7.500000      6.000000      1.500000, Make: null, ID: soot_75_60_15, Quantity: TEMPERATURE
   404 Coords:      8.000000      6.000000      1.500000, Make: null, ID: soot_80_60_15, Quantity: TEMPERATURE
   405 Coords:      8.500000      6.000000      1.500000, Make: null, ID: soot_85_60_15, Quantity: TEMPERATURE
   406 Coords:      4.500000      6.000000      2.000000, Make: null, ID: soot_45_60_20, Quantity: TEMPERATURE
   407 Coords:      5.000000      6.000000      2.000000, Make: null, ID: soot_50_60_20, Quantity: TEMPERATURE
   408 Coords:      5.500000      6.000000      2.000000, Make: null, ID: soot_55_60_20, Quantity: TEMPERATURE
   409 Coords:      6.000000      6.000000      2.000000, Make: null, ID: soot_60_60_20, Quantity: TEMPERATURE
   410 Coords:      6.500000      6.000000      2.000000, Make: null, ID: soot_65_60_20, Quantity: TEMPERATURE
   411 Coords:      7.000000      6.000000      2.000000, Make: null, ID: soot_70_60_20, Quantity: TEMPERATURE
   412 Coords:      7.500000      6.000000      2.000000, Make: null, ID: soot_75_60_20, Quantity: TEMPERATURE
   413 Coords:      8.000000      6.000000      2.000000, Make: null, ID: soot_80_60_20, Quantity: TEMPERATURE
   414 Coords:      8.500000      6.000000      2.000000, Make: null, ID: soot_85_60_20, Quantity: TEMPERATURE
   415 Coords:      4.500000      6.000000      2.500000, Make: null, ID: soot_45_60_25, Quantity: TEMPERATURE
   416 Coords:      5.000000      6.000000      2.500000, Make: null, ID: soot_50_60_25, Quantity: TEMPERATURE
   417 Coords:      5.500000      6.000000      2.500000, Make: null, ID: soot_55_60_25, Quantity: TEMPERATURE
   418 Coords:      6.000000      6.000000      2.500000, Make: null, ID: soot_60_60_25, Quantity: TEMPERATURE
   419 Coords:      6.500000      6.000000      2.500000, Make: null, ID: soot_65_60_25, Quantity: TEMPERATURE
   420 Coords:      7.000000      6.000000      2.500000, Make: null, ID: soot_70_60_25, Quantity: TEMPERATURE
   421 Coords:      7.500000      6.000000      2.500000, Make: null, ID: soot_75_60_25, Quantity: TEMPERATURE
   422 Coords:      8.000000      6.000000      2.500000, Make: null, ID: soot_80_60_25, Quantity: TEMPERATURE
   423 Coords:      8.500000      6.000000      2.500000, Make: null, ID: soot_85_60_25, Quantity: TEMPERATURE
   424 Coords:      4.500000      6.000000      3.000000, Make: null, ID: soot_45_60_30, Quantity: TEMPERATURE
   425 Coords:      5.000000      6.000000      3.000000, Make: null, ID: soot_50_60_30, Quantity: TEMPERATURE
   426 Coords:      5.500000      6.000000      3.000000, Make: null, ID: soot_55_60_30, Quantity: TEMPERATURE
   427 Coords:      6.000000      6.000000      3.000000, Make: null, ID: soot_60_60_30, Quantity: TEMPERATURE
   428 Coords:      6.500000      6.000000      3.000000, Make: null, ID: soot_65_60_30, Quantity: TEMPERATURE
   429 Coords:      7.000000      6.000000      3.000000, Make: null, ID: soot_70_60_30, Quantity: TEMPERATURE
   430 Coords:      7.500000      6.000000      3.000000, Make: null, ID: soot_75_60_30, Quantity: TEMPERATURE
   431 Coords:      8.000000      6.000000      3.000000, Make: null, ID: soot_80_60_30, Quantity: TEMPERATURE
   432 Coords:      8.500000      6.000000      3.000000, Make: null, ID: soot_85_60_30, Quantity: TEMPERATURE
   433 Coords:      4.500000      6.500000      0.500000, Make: null, ID: soot_45_65_05, Quantity: TEMPERATURE
   434 Coords:      5.000000      6.500000      0.500000, Make: null, ID: soot_50_65_05, Quantity: TEMPERATURE
   435 Coords:      5.500000      6.500000      0.500000, Make: null, ID: soot_55_65_05, Quantity: TEMPERATURE
   436 Coords:      6.000000      6.500000      0.500000, Make: null, ID: soot_60_65_05, Quantity: TEMPERATURE
   437 Coords:      6.500000      6.500000      0.500000, Make: null, ID: soot_65_65_05, Quantity: TEMPERATURE
   438 Coords:      7.000000      6.500000      0.500000, Make: null, ID: soot_70_65_05, Quantity: TEMPERATURE
   439 Coords:      7.500000      6.500000      0.500000, Make: null, ID: soot_75_65_05, Quantity: TEMPERATURE
   440 Coords:      8.000000      6.500000      0.500000, Make: null, ID: soot_80_65_05, Quantity: TEMPERATURE
   441 Coords:      8.500000      6.500000      0.500000, Make: null, ID: soot_85_65_05, Quantity: TEMPERATURE
   442 Coords:      4.500000      6.500000      1.000000, Make: null, ID: soot_45_65_10, Quantity: TEMPERATURE
   443 Coords:      5.000000      6.500000      1.000000, Make: null, ID: soot_50_65_10, Quantity: TEMPERATURE
   444 Coords:      5.500000      6.500000      1.000000, Make: null, ID: soot_55_65_10, Quantity: TEMPERATURE
   445 Coords:      6.000000      6.500000      1.000000, Make: null, ID: soot_60_65_10, Quantity: TEMPERATURE
   446 Coords:      6.500000      6.500000      1.000000, Make: null, ID: soot_65_65_10, Quantity: TEMPERATURE
   447 Coords:      7.000000      6.500000      1.000000, Make: null, ID: soot_70_65_10, Quantity: TEMPERATURE
   448 Coords:      7.500000      6.500000      1.000000, Make: null, ID: soot_75_65_10, Quantity: TEMPERATURE
   449 Coords:      8.000000      6.500000      1.000000, Make: null, ID: soot_80_65_10, Quantity: TEMPERATURE
   450 Coords:      8.500000      6.500000      1.000000, Make: null, ID: soot_85_65_10, Quantity: TEMPERATURE
   451 Coords:      4.500000      6.500000      1.500000, Make: null, ID: soot_45_65_15, Quantity: TEMPERATURE
   452 Coords:      5.000000      6.500000      1.500000, Make: null, ID: soot_50_65_15, Quantity: TEMPERATURE
   453 Coords:      5.500000      6.500000      1.500000, Make: null, ID: soot_55_65_15, Quantity: TEMPERATURE
   454 Coords:      6.000000      6.500000      1.500000, Make: null, ID: soot_60_65_15, Quantity: TEMPERATURE
   455 Coords:      6.500000      6.500000      1.500000, Make: null, ID: soot_65_65_15, Quantity: TEMPERATURE
   456 Coords:      7.000000      6.500000      1.500000, Make: null, ID: soot_70_65_15, Quantity: TEMPERATURE
   457 Coords:      7.500000      6.500000      1.500000, Make: null, ID: soot_75_65_15, Quantity: TEMPERATURE
   458 Coords:      8.000000      6.500000      1.500000, Make: null, ID: soot_80_65_15, Quantity: TEMPERATURE
   459 Coords:      8.500000      6.500000      1.500000, Make: null, ID: soot_85_65_15, Quantity: TEMPERATURE
   460 Coords:      4.500000      6.500000      2.000000, Make: null, ID: soot_45_65_20, Quantity: TEMPERATURE
   461 Coords:      5.000000      6.500000      2.000000, Make: null, ID: soot_50_65_20, Quantity: TEMPERATURE
   462 Coords:      5.500000      6.500000      2.000000, Make: null, ID: soot_55_65_20, Quantity: TEMPERATURE
   463 Coords:      6.000000      6.500000      2.000000, Make: null, ID: soot_60_65_20, Quantity: TEMPERATURE
   464 Coords:      6.500000      6.500000      2.000000, Make: null, ID: soot_65_65_20, Quantity: TEMPERATURE
   465 Coords:      7.000000      6.500000      2.000000, Make: null, ID: soot_70_65_20, Quantity: TEMPERATURE
   466 Coords:      7.500000      6.500000      2.000000, Make: null, ID: soot_75_65_20, Quantity: TEMPERATURE
   467 Coords:      8.000000      6.500000      2.000000, Make: null, ID: soot_80_65_20, Quantity: TEMPERATURE
   468 Coords:      8.500000      6.500000      2.000000, Make: null, ID: soot_85_65_20, Quantity: TEMPERATURE
   469 Coords:      4.500000      6.500000      2.500000, Make: null, ID: soot_45_65_25, Quantity: TEMPERATURE
   470 Coords:      5.000000      6.500000      2.500000, Make: null, ID: soot_50_65_25, Quantity: TEMPERATURE
   471 Coords:      5.500000      6.500000      2.500000, Make: null, ID: soot_55_65_25, Quantity: TEMPERATURE
   472 Coords:      6.000000      6.500000      2.500000, Make: null, ID: soot_60_65_25, Quantity: TEMPERATURE
   473 Coords:      6.500000      6.500000      2.500000, Make: null, ID: soot_65_65_25, Quantity: TEMPERATURE
   474 Coords:      7.000000      6.500000      2.500000, Make: null, ID: soot_70_65_25, Quantity: TEMPERATURE
   475 Coords:      7.500000      6.500000      2.500000, Make: null, ID: soot_75_65_25, Quantity: TEMPERATURE
   476 Coords:      8.000000      6.500000      2.500000, Make: null, ID: soot_80_65_25, Quantity: TEMPERATURE
   477 Coords:      8.500000      6.500000      2.500000, Make: null, ID: soot_85_65_25, Quantity: TEMPERATURE
   478 Coords:      4.500000      6.500000      3.000000, Make: null, ID: soot_45_65_30, Quantity: TEMPERATURE
   479 Coords:      5.000000      6.500000      3.000000, Make: null, ID: soot_50_65_30, Quantity: TEMPERATURE
   480 Coords:      5.500000      6.500000      3.000000, Make: null, ID: soot_55_65_30, Quantity: TEMPERATURE
   481 Coords:      6.000000      6.500000      3.000000, Make: null, ID: soot_60_65_30, Quantity: TEMPERATURE
   482 Coords:      6.500000      6.500000      3.000000, Make: null, ID: soot_65_65_30, Quantity: TEMPERATURE
   483 Coords:      7.000000      6.500000      3.000000, Make: null, ID: soot_70_65_30, Quantity: TEMPERATURE
   484 Coords:      7.500000      6.500000      3.000000, Make: null, ID: soot_75_65_30, Quantity: TEMPERATURE
   485 Coords:      8.000000      6.500000      3.000000, Make: null, ID: soot_80_65_30, Quantity: TEMPERATURE
   486 Coords:      8.500000      6.500000      3.000000, Make: null, ID: soot_85_65_30, Quantity: TEMPERATURE
   487 Coords:      4.500000      7.000000      0.500000, Make: null, ID: soot_45_70_05, Quantity: TEMPERATURE
   488 Coords:      5.000000      7.000000      0.500000, Make: null, ID: soot_50_70_05, Quantity: TEMPERATURE
   489 Coords:      5.500000      7.000000      0.500000, Make: null, ID: soot_55_70_05, Quantity: TEMPERATURE
   490 Coords:      6.000000      7.000000      0.500000, Make: null, ID: soot_60_70_05, Quantity: TEMPERATURE
   491 Coords:      6.500000      7.000000      0.500000, Make: null, ID: soot_65_70_05, Quantity: TEMPERATURE
   492 Coords:      7.000000      7.000000      0.500000, Make: null, ID: soot_70_70_05, Quantity: TEMPERATURE
   493 Coords:      7.500000      7.000000      0.500000, Make: null, ID: soot_75_70_05, Quantity: TEMPERATURE
   494 Coords:      8.000000      7.000000      0.500000, Make: null, ID: soot_80_70_05, Quantity: TEMPERATURE
   495 Coords:      8.500000      7.000000      0.500000, Make: null, ID: soot_85_70_05, Quantity: TEMPERATURE
   496 Coords:      4.500000      7.000000      1.000000, Make: null, ID: soot_45_70_10, Quantity: TEMPERATURE
   497 Coords:      5.000000      7.000000      1.000000, Make: null, ID: soot_50_70_10, Quantity: TEMPERATURE
   498 Coords:      5.500000      7.000000      1.000000, Make: null, ID: soot_55_70_10, Quantity: TEMPERATURE
   499 Coords:      6.000000      7.000000      1.000000, Make: null, ID: soot_60_70_10, Quantity: TEMPERATURE
   500 Coords:      6.500000      7.000000      1.000000, Make: null, ID: soot_65_70_10, Quantity: TEMPERATURE
   501 Coords:      7.000000      7.000000      1.000000, Make: null, ID: soot_70_70_10, Quantity: TEMPERATURE
   502 Coords:      7.500000      7.000000      1.000000, Make: null, ID: soot_75_70_10, Quantity: TEMPERATURE
   503 Coords:      8.000000      7.000000      1.000000, Make: null, ID: soot_80_70_10, Quantity: TEMPERATURE
   504 Coords:      8.500000      7.000000      1.000000, Make: null, ID: soot_85_70_10, Quantity: TEMPERATURE
   505 Coords:      4.500000      7.000000      1.500000, Make: null, ID: soot_45_70_15, Quantity: TEMPERATURE
   506 Coords:      5.000000      7.000000      1.500000, Make: null, ID: soot_50_70_15, Quantity: TEMPERATURE
   507 Coords:      5.500000      7.000000      1.500000, Make: null, ID: soot_55_70_15, Quantity: TEMPERATURE
   508 Coords:      6.000000      7.000000      1.500000, Make: null, ID: soot_60_70_15, Quantity: TEMPERATURE
   509 Coords:      6.500000      7.000000      1.500000, Make: null, ID: soot_65_70_15, Quantity: TEMPERATURE
   510 Coords:      7.000000      7.000000      1.500000, Make: null, ID: soot_70_70_15, Quantity: TEMPERATURE
   511 Coords:      7.500000      7.000000      1.500000, Make: null, ID: soot_75_70_15, Quantity: TEMPERATURE
   512 Coords:      8.000000      7.000000      1.500000, Make: null, ID: soot_80_70_15, Quantity: TEMPERATURE
   513 Coords:      8.500000      7.000000      1.500000, Make: null, ID: soot_85_70_15, Quantity: TEMPERATURE
   514 Coords:      4.500000      7.000000      2.000000, Make: null, ID: soot_45_70_20, Quantity: TEMPERATURE
   515 Coords:      5.000000      7.000000      2.000000, Make: null, ID: soot_50_70_20, Quantity: TEMPERATURE
   516 Coords:      5.500000      7.000000      2.000000, Make: null, ID: soot_55_70_20, Quantity: TEMPERATURE
   517 Coords:      6.000000      7.000000      2.000000, Make: null, ID: soot_60_70_20, Quantity: TEMPERATURE
   518 Coords:      6.500000      7.000000      2.000000, Make: null, ID: soot_65_70_20, Quantity: TEMPERATURE
   519 Coords:      7.000000      7.000000      2.000000, Make: null, ID: soot_70_70_20, Quantity: TEMPERATURE
   520 Coords:      7.500000      7.000000      2.000000, Make: null, ID: soot_75_70_20, Quantity: TEMPERATURE
   521 Coords:      8.000000      7.000000      2.000000, Make: null, ID: soot_80_70_20, Quantity: TEMPERATURE
   522 Coords:      8.500000      7.000000      2.000000, Make: null, ID: soot_85_70_20, Quantity: TEMPERATURE
   523 Coords:      4.500000      7.000000      2.500000, Make: null, ID: soot_45_70_25, Quantity: TEMPERATURE
   524 Coords:      5.000000      7.000000      2.500000, Make: null, ID: soot_50_70_25, Quantity: TEMPERATURE
   525 Coords:      5.500000      7.000000      2.500000, Make: null, ID: soot_55_70_25, Quantity: TEMPERATURE
   526 Coords:      6.000000      7.000000      2.500000, Make: null, ID: soot_60_70_25, Quantity: TEMPERATURE
   527 Coords:      6.500000      7.000000      2.500000, Make: null, ID: soot_65_70_25, Quantity: TEMPERATURE
   528 Coords:      7.000000      7.000000      2.500000, Make: null, ID: soot_70_70_25, Quantity: TEMPERATURE
   529 Coords:      7.500000      7.000000      2.500000, Make: null, ID: soot_75_70_25, Quantity: TEMPERATURE
   530 Coords:      8.000000      7.000000      2.500000, Make: null, ID: soot_80_70_25, Quantity: TEMPERATURE
   531 Coords:      8.500000      7.000000      2.500000, Make: null, ID: soot_85_70_25, Quantity: TEMPERATURE
   532 Coords:      4.500000      7.000000      3.000000, Make: null, ID: soot_45_70_30, Quantity: TEMPERATURE
   533 Coords:      5.000000      7.000000      3.000000, Make: null, ID: soot_50_70_30, Quantity: TEMPERATURE
   534 Coords:      5.500000      7.000000      3.000000, Make: null, ID: soot_55_70_30, Quantity: TEMPERATURE
   535 Coords:      6.000000      7.000000      3.000000, Make: null, ID: soot_60_70_30, Quantity: TEMPERATURE
   536 Coords:      6.500000      7.000000      3.000000, Make: null, ID: soot_65_70_30, Quantity: TEMPERATURE
   537 Coords:      7.000000      7.000000      3.000000, Make: null, ID: soot_70_70_30, Quantity: TEMPERATURE
   538 Coords:      7.500000      7.000000      3.000000, Make: null, ID: soot_75_70_30, Quantity: TEMPERATURE
   539 Coords:      8.000000      7.000000      3.000000, Make: null, ID: soot_80_70_30, Quantity: TEMPERATURE
   540 Coords:      8.500000      7.000000      3.000000, Make: null, ID: soot_85_70_30, Quantity: TEMPERATURE
   541 Coords:      4.500000      7.500000      0.500000, Make: null, ID: soot_45_75_05, Quantity: TEMPERATURE
   542 Coords:      5.000000      7.500000      0.500000, Make: null, ID: soot_50_75_05, Quantity: TEMPERATURE
   543 Coords:      5.500000      7.500000      0.500000, Make: null, ID: soot_55_75_05, Quantity: TEMPERATURE
   544 Coords:      6.000000      7.500000      0.500000, Make: null, ID: soot_60_75_05, Quantity: TEMPERATURE
   545 Coords:      6.500000      7.500000      0.500000, Make: null, ID: soot_65_75_05, Quantity: TEMPERATURE
   546 Coords:      7.000000      7.500000      0.500000, Make: null, ID: soot_70_75_05, Quantity: TEMPERATURE
   547 Coords:      7.500000      7.500000      0.500000, Make: null, ID: soot_75_75_05, Quantity: TEMPERATURE
   548 Coords:      8.000000      7.500000      0.500000, Make: null, ID: soot_80_75_05, Quantity: TEMPERATURE
   549 Coords:      8.500000      7.500000      0.500000, Make: null, ID: soot_85_75_05, Quantity: TEMPERATURE
   550 Coords:      4.500000      7.500000      1.000000, Make: null, ID: soot_45_75_10, Quantity: TEMPERATURE
   551 Coords:      5.000000      7.500000      1.000000, Make: null, ID: soot_50_75_10, Quantity: TEMPERATURE
   552 Coords:      5.500000      7.500000      1.000000, Make: null, ID: soot_55_75_10, Quantity: TEMPERATURE
   553 Coords:      6.000000      7.500000      1.000000, Make: null, ID: soot_60_75_10, Quantity: TEMPERATURE
   554 Coords:      6.500000      7.500000      1.000000, Make: null, ID: soot_65_75_10, Quantity: TEMPERATURE
   555 Coords:      7.000000      7.500000      1.000000, Make: null, ID: soot_70_75_10, Quantity: TEMPERATURE
   556 Coords:      7.500000      7.500000      1.000000, Make: null, ID: soot_75_75_10, Quantity: TEMPERATURE
   557 Coords:      8.000000      7.500000      1.000000, Make: null, ID: soot_80_75_10, Quantity: TEMPERATURE
   558 Coords:      8.500000      7.500000      1.000000, Make: null, ID: soot_85_75_10, Quantity: TEMPERATURE
   559 Coords:      4.500000      7.500000      1.500000, Make: null, ID: soot_45_75_15, Quantity: TEMPERATURE
   560 Coords:      5.000000      7.500000      1.500000, Make: null, ID: soot_50_75_15, Quantity: TEMPERATURE
   561 Coords:      5.500000      7.500000      1.500000, Make: null, ID: soot_55_75_15, Quantity: TEMPERATURE
   562 Coords:      6.000000      7.500000      1.500000, Make: null, ID: soot_60_75_15, Quantity: TEMPERATURE
   563 Coords:      6.500000      7.500000      1.500000, Make: null, ID: soot_65_75_15, Quantity: TEMPERATURE
   564 Coords:      7.000000      7.500000      1.500000, Make: null, ID: soot_70_75_15, Quantity: TEMPERATURE
   565 Coords:      7.500000      7.500000      1.500000, Make: null, ID: soot_75_75_15, Quantity: TEMPERATURE
   566 Coords:      8.000000      7.500000      1.500000, Make: null, ID: soot_80_75_15, Quantity: TEMPERATURE
   567 Coords:      8.500000      7.500000      1.500000, Make: null, ID: soot_85_75_15, Quantity: TEMPERATURE
   568 Coords:      4.500000      7.500000      2.000000, Make: null, ID: soot_45_75_20, Quantity: TEMPERATURE
   569 Coords:      5.000000      7.500000      2.000000, Make: null, ID: soot_50_75_20, Quantity: TEMPERATURE
   570 Coords:      5.500000      7.500000      2.000000, Make: null, ID: soot_55_75_20, Quantity: TEMPERATURE
   571 Coords:      6.000000      7.500000      2.000000, Make: null, ID: soot_60_75_20, Quantity: TEMPERATURE
   572 Coords:      6.500000      7.500000      2.000000, Make: null, ID: soot_65_75_20, Quantity: TEMPERATURE
   573 Coords:      7.000000      7.500000      2.000000, Make: null, ID: soot_70_75_20, Quantity: TEMPERATURE
   574 Coords:      7.500000      7.500000      2.000000, Make: null, ID: soot_75_75_20, Quantity: TEMPERATURE
   575 Coords:      8.000000      7.500000      2.000000, Make: null, ID: soot_80_75_20, Quantity: TEMPERATURE
   576 Coords:      8.500000      7.500000      2.000000, Make: null, ID: soot_85_75_20, Quantity: TEMPERATURE
   577 Coords:      4.500000      7.500000      2.500000, Make: null, ID: soot_45_75_25, Quantity: TEMPERATURE
   578 Coords:      5.000000      7.500000      2.500000, Make: null, ID: soot_50_75_25, Quantity: TEMPERATURE
   579 Coords:      5.500000      7.500000      2.500000, Make: null, ID: soot_55_75_25, Quantity: TEMPERATURE
   580 Coords:      6.000000      7.500000      2.500000, Make: null, ID: soot_60_75_25, Quantity: TEMPERATURE
   581 Coords:      6.500000      7.500000      2.500000, Make: null, ID: soot_65_75_25, Quantity: TEMPERATURE
   582 Coords:      7.000000      7.500000      2.500000, Make: null, ID: soot_70_75_25, Quantity: TEMPERATURE
   583 Coords:      7.500000      7.500000      2.500000, Make: null, ID: soot_75_75_25, Quantity: TEMPERATURE
   584 Coords:      8.000000      7.500000      2.500000, Make: null, ID: soot_80_75_25, Quantity: TEMPERATURE
   585 Coords:      8.500000      7.500000      2.500000, Make: null, ID: soot_85_75_25, Quantity: TEMPERATURE
   586 Coords:      4.500000      7.500000      3.000000, Make: null, ID: soot_45_75_30, Quantity: TEMPERATURE
   587 Coords:      5.000000      7.500000      3.000000, Make: null, ID: soot_50_75_30, Quantity: TEMPERATURE
   588 Coords:      5.500000      7.500000      3.000000, Make: null, ID: soot_55_75_30, Quantity: TEMPERATURE
   589 Coords:      6.000000      7.500000      3.000000, Make: null, ID: soot_60_75_30, Quantity: TEMPERATURE
   590 Coords:      6.500000      7.500000      3.000000, Make: null, ID: soot_65_75_30, Quantity: TEMPERATURE
   591 Coords:      7.000000      7.500000      3.000000, Make: null, ID: soot_70_75_30, Quantity: TEMPERATURE
   592 Coords:      7.500000      7.500000      3.000000, Make: null, ID: soot_75_75_30, Quantity: TEMPERATURE
   593 Coords:      8.000000      7.500000      3.000000, Make: null, ID: soot_80_75_30, Quantity: TEMPERATURE
   594 Coords:      8.500000      7.500000      3.000000, Make: null, ID: soot_85_75_30, Quantity: TEMPERATURE
   595 Coords:      4.500000      8.000000      0.500000, Make: null, ID: soot_45_80_05, Quantity: TEMPERATURE
   596 Coords:      5.000000      8.000000      0.500000, Make: null, ID: soot_50_80_05, Quantity: TEMPERATURE
   597 Coords:      5.500000      8.000000      0.500000, Make: null, ID: soot_55_80_05, Quantity: TEMPERATURE
   598 Coords:      6.000000      8.000000      0.500000, Make: null, ID: soot_60_80_05, Quantity: TEMPERATURE
[...]
       Radiation Loss to Boundaries:         2.233 kW
 
       Time Step   28300   May 15, 2021  02:41:31
       Step Size:    0.177E+00 s, Total Time:    3076.23 s
       Pressure Iterations:      1
       Maximum Velocity Error:  0.44E-03 on Mesh   1 at (   9  19  40)
       Maximum Pressure Error:  0.16E-03 on Mesh   1 at (   1   1  37)
       ---------------------------------------------------------------
       Max CFL number:  0.40E+00 at (  17,  15,  18)
       Max divergence:  0.40E-02 at (  17,  16,   1)
       Min divergence: -0.11E-02 at (  17,  15,  20)
       Max VN number:   0.28E+00 at (  17,  15,  20)
       Radiation Loss to Boundaries:         2.216 kW
 
       Time Step   28400   May 15, 2021  02:41:52
       Step Size:    0.177E+00 s, Total Time:    3093.91 s
       Pressure Iterations:      1
       Maximum Velocity Error:  0.41E-03 on Mesh   1 at (  18  16  19)
       Maximum Pressure Error:  0.29E-03 on Mesh   1 at (  17  16  20)
       ---------------------------------------------------------------
       Max CFL number:  0.40E+00 at (  17,  15,  18)
       Max divergence:  0.45E-02 at (  17,  16,   1)
       Min divergence: -0.10E-02 at (  17,  15,  20)
       Max VN number:   0.28E+00 at (  17,  15,  20)
       Radiation Loss to Boundaries:         2.200 kW
 
       Time Step   28500   May 15, 2021  02:42:13
       Step Size:    0.177E+00 s, Total Time:    3111.58 s
       Pressure Iterations:      1
       Maximum Velocity Error:  0.34E-03 on Mesh   1 at (   9  10  34)
       Maximum Pressure Error:  0.19E-03 on Mesh   1 at (   1   1  38)
       ---------------------------------------------------------------
       Max CFL number:  0.40E+00 at (  17,  15,  18)
       Max divergence:  0.44E-02 at (  17,  16,   1)
       Min divergence: -0.11E-02 at (  17,  15,  20)
       Max VN number:   0.28E+00 at (  17,  15,  20)
       Radiation Loss to Boundaries:         2.183 kW
 
       Time Step   28600   May 15, 2021  02:42:34
       Step Size:    0.177E+00 s, Total Time:    3129.26 s
       Pressure Iterations:      1
       Maximum Velocity Error:  0.26E-03 on Mesh   1 at (   9  19  38)
       Maximum Pressure Error:  0.27E-03 on Mesh   1 at (   1   3  32)
       ---------------------------------------------------------------
       Max CFL number:  0.40E+00 at (  17,  15,  18)
       Max divergence:  0.46E-02 at (  17,  16,   1)
       Min divergence: -0.11E-02 at (  17,  15,  20)
       Max VN number:   0.28E+00 at (  17,  15,  20)
       Radiation Loss to Boundaries:         2.172 kW
 
       Time Step   28700   May 15, 2021  02:42:55
       Step Size:    0.177E+00 s, Total Time:    3146.94 s
       Pressure Iterations:      1
       Maximum Velocity Error:  0.22E-03 on Mesh   1 at (   9  12  28)
       Maximum Pressure Error:  0.40E-03 on Mesh   1 at (  17  14   1)
       ---------------------------------------------------------------
       Max CFL number:  0.40E+00 at (  17,  15,  18)
       Max divergence:  0.45E-02 at (  17,  16,   1)
       Min divergence: -0.10E-02 at (  17,  15,  20)
       Max VN number:   0.28E+00 at (  17,  15,  20)
       Radiation Loss to Boundaries:         2.162 kW
 
       Time Step   28800   May 15, 2021  02:43:16
       Step Size:    0.177E+00 s, Total Time:    3164.62 s
       Pressure Iterations:      1
       Maximum Velocity Error:  0.42E-03 on Mesh   1 at (   9  13  27)
       Maximum Pressure Error:  0.59E-03 on Mesh   1 at (  17  16   1)
       ---------------------------------------------------------------
       Max CFL number:  0.41E+00 at (  17,  15,  18)
       Max divergence:  0.41E-02 at (  17,  16,   1)
       Min divergence: -0.11E-02 at (  17,  15,  20)
       Max VN number:   0.29E+00 at (  17,  15,  20)
       Radiation Loss to Boundaries:         2.145 kW
 
       Time Step   28900   May 15, 2021  02:43:36
       Step Size:    0.177E+00 s, Total Time:    3182.29 s
       Pressure Iterations:      1
       Maximum Velocity Error:  0.32E-03 on Mesh   1 at (   9  15  26)
       Maximum Pressure Error:  0.12E-03 on Mesh   1 at (  16  13   1)
       ---------------------------------------------------------------
       Max CFL number:  0.41E+00 at (  17,  15,  18)
       Max divergence:  0.38E-02 at (  17,  16,   1)
       Min divergence: -0.11E-02 at (  17,  15,  20)
       Max VN number:   0.29E+00 at (  17,  15,  20)
       Radiation Loss to Boundaries:         2.130 kW
 
       Time Step   29000   May 15, 2021  02:43:57
       Step Size:    0.177E+00 s, Total Time:    3199.97 s
       Pressure Iterations:      1
       Maximum Velocity Error:  0.30E-03 on Mesh   1 at (   9  10  28)
       Maximum Pressure Error:  0.27E-03 on Mesh   1 at (  17  14   1)
       ---------------------------------------------------------------
       Max CFL number:  0.40E+00 at (  17,  15,  18)
       Max divergence:  0.40E-02 at (  17,  16,   1)
       Min divergence: -0.11E-02 at (  17,  15,  20)
       Max VN number:   0.29E+00 at (  17,  15,  20)
       Radiation Loss to Boundaries:         2.115 kW
 
       Time Step   29100   May 15, 2021  02:44:18
       Step Size:    0.177E+00 s, Total Time:    3217.65 s
       Pressure Iterations:      1
       Maximum Velocity Error:  0.25E-03 on Mesh   1 at (   9  11  28)
       Maximum Pressure Error:  0.17E-03 on Mesh   1 at (  17  16   1)
       ---------------------------------------------------------------
       Max CFL number:  0.40E+00 at (  17,  15,  18)
       Max divergence:  0.39E-02 at (  17,  16,   1)
       Min divergence: -0.13E-02 at (  15,  15,   1)
       Max VN number:   0.29E+00 at (  17,  15,  20)
       Radiation Loss to Boundaries:         2.100 kW
 
       Time Step   29200   May 15, 2021  02:44:39
       Step Size:    0.177E+00 s, Total Time:    3235.33 s
       Pressure Iterations:      1
       Maximum Velocity Error:  0.29E-03 on Mesh   1 at (  18  16  19)
       Maximum Pressure Error:  0.11E-02 on Mesh   1 at (  17  14   1)
       ---------------------------------------------------------------
       Max CFL number:  0.40E+00 at (  17,  15,  18)
       Max divergence:  0.39E-02 at (  17,  16,   1)
       Min divergence: -0.11E-02 at (  17,  15,  20)
       Max VN number:   0.28E+00 at (  17,  15,  20)
       Radiation Loss to Boundaries:         2.088 kW
 
       Time Step   29300   May 15, 2021  02:45:00
       Step Size:    0.177E+00 s, Total Time:    3253.01 s
       Pressure Iterations:      1
       Maximum Velocity Error:  0.33E-03 on Mesh   1 at (  18  16  19)
       Maximum Pressure Error:  0.54E-03 on Mesh   1 at (  17  14   1)
       ---------------------------------------------------------------
       Max CFL number:  0.39E+00 at (  17,  15,  18)
       Max divergence:  0.37E-02 at (  17,  16,   1)
       Min divergence: -0.10E-02 at (  17,  15,  20)
       Max VN number:   0.28E+00 at (  17,  15,  20)
       Radiation Loss to Boundaries:         2.077 kW
 
       Time Step   29400   May 15, 2021  02:45:21
       Step Size:    0.177E+00 s, Total Time:    3270.68 s
       Pressure Iterations:      1
       Maximum Velocity Error:  0.18E-03 on Mesh   1 at (   9  16  26)
       Maximum Pressure Error:  0.50E-03 on Mesh   1 at (  17  14   1)
       ---------------------------------------------------------------
       Max CFL number:  0.38E+00 at (  17,  15,  18)
       Max divergence:  0.41E-02 at (  17,  16,   1)
       Min divergence: -0.13E-02 at (  14,  15,   1)
       Max VN number:   0.27E+00 at (  17,  15,  20)
       Radiation Loss to Boundaries:         2.062 kW
 
       Time Step   29500   May 15, 2021  02:45:42
       Step Size:    0.177E+00 s, Total Time:    3288.36 s
       Pressure Iterations:      1
       Maximum Velocity Error:  0.26E-03 on Mesh   1 at (  18  16  14)
       Maximum Pressure Error:  0.43E-03 on Mesh   1 at (  17  14   1)
       ---------------------------------------------------------------
       Max CFL number:  0.38E+00 at (  17,  15,  18)
       Max divergence:  0.35E-02 at (  17,  16,   1)
       Min divergence: -0.19E-02 at (  15,  14,   1)
       Max VN number:   0.27E+00 at (  17,  15,  20)
       Radiation Loss to Boundaries:         2.050 kW
 
       Time Step   29600   May 15, 2021  02:46:02
       Step Size:    0.177E+00 s, Total Time:    3306.04 s
       Pressure Iterations:      1
       Maximum Velocity Error:  0.25E-03 on Mesh   1 at (   9  18  39)
       Maximum Pressure Error:  0.43E-03 on Mesh   1 at (   1   4  34)
       ---------------------------------------------------------------
       Max CFL number:  0.38E+00 at (  17,  15,  18)
       Max divergence:  0.35E-02 at (  17,  16,   1)
       Min divergence: -0.13E-02 at (  15,  14,   1)
       Max VN number:   0.27E+00 at (  17,  15,  20)
       Radiation Loss to Boundaries:         2.039 kW
 
       Time Step   29700   May 15, 2021  02:46:23
       Step Size:    0.177E+00 s, Total Time:    3323.72 s
       Pressure Iterations:      1
       Maximum Velocity Error:  0.42E-03 on Mesh   1 at (   9  19  39)
       Maximum Pressure Error:  0.13E-03 on Mesh   1 at (   1   4  33)
       ---------------------------------------------------------------
       Max CFL number:  0.38E+00 at (  17,  15,  18)
       Max divergence:  0.40E-02 at (  17,  16,   1)
       Min divergence: -0.95E-03 at (  17,  15,  20)
       Max VN number:   0.27E+00 at (  17,  15,  20)
       Radiation Loss to Boundaries:         2.022 kW
 
       Time Step   29800   May 15, 2021  02:46:44
       Step Size:    0.177E+00 s, Total Time:    3341.39 s
       Pressure Iterations:      1
       Maximum Velocity Error:  0.37E-03 on Mesh   1 at (   9  11  27)
       Maximum Pressure Error:  0.37E-03 on Mesh   1 at (  17  14   1)
       ---------------------------------------------------------------
       Max CFL number:  0.39E+00 at (  17,  15,  18)
       Max divergence:  0.40E-02 at (  17,  16,   1)
       Min divergence: -0.95E-03 at (  17,  15,  20)
       Max VN number:   0.28E+00 at (  17,  15,  20)
       Radiation Loss to Boundaries:         2.013 kW
 
       Time Step   29900   May 15, 2021  02:47:05
       Step Size:    0.177E+00 s, Total Time:    3359.07 s
       Pressure Iterations:      1
       Maximum Velocity Error:  0.21E-03 on Mesh   1 at (   9  12  26)
       Maximum Pressure Error:  0.17E-03 on Mesh   1 at (   1   5  35)
       ---------------------------------------------------------------
       Max CFL number:  0.39E+00 at (  17,  15,  18)
       Max divergence:  0.39E-02 at (  17,  16,   1)
       Min divergence: -0.96E-03 at (  17,  15,  20)
       Max VN number:   0.27E+00 at (  17,  15,  20)
       Radiation Loss to Boundaries:         1.998 kW
 
       Time Step   30000   May 15, 2021  02:47:26
       Step Size:    0.177E+00 s, Total Time:    3376.75 s
       Pressure Iterations:      1
       Maximum Velocity Error:  0.30E-03 on Mesh   1 at (   9  13  26)
       Maximum Pressure Error:  0.17E-03 on Mesh   1 at (  16  15   1)
       ---------------------------------------------------------------
       Max CFL number:  0.39E+00 at (  17,  15,  18)
       Max divergence:  0.41E-02 at (  17,  16,   1)
       Min divergence: -0.99E-03 at (  17,  15,  20)
       Max VN number:   0.28E+00 at (  17,  15,  20)
       Radiation Loss to Boundaries:         1.990 kW
 
       Time Step   30100   May 15, 2021  02:47:47
       Step Size:    0.177E+00 s, Total Time:    3394.43 s
       Pressure Iterations:      1
       Maximum Velocity Error:  0.29E-03 on Mesh   1 at (  10  12  26)
       Maximum Pressure Error:  0.56E-03 on Mesh   1 at (  17  16   1)
       ---------------------------------------------------------------
       Max CFL number:  0.39E+00 at (  17,  15,  18)
       Max divergence:  0.41E-02 at (  17,  16,   1)
       Min divergence: -0.11E-02 at (  17,  15,  20)
       Max VN number:   0.28E+00 at (  17,  15,  20)
       Radiation Loss to Boundaries:         1.977 kW
 
       Time Step   30200   May 15, 2021  02:48:08
       Step Size:    0.177E+00 s, Total Time:    3412.10 s
       Pressure Iterations:      1
       Maximum Velocity Error:  0.24E-03 on Mesh   1 at (   9  12  26)
       Maximum Pressure Error:  0.19E-03 on Mesh   1 at (  17  14   1)
       ---------------------------------------------------------------
       Max CFL number:  0.38E+00 at (  17,  15,  18)
       Max divergence:  0.39E-02 at (  17,  16,   1)
       Min divergence: -0.97E-03 at (  17,  15,  20)
       Max VN number:   0.27E+00 at (  17,  15,  20)
       Radiation Loss to Boundaries:         1.965 kW
 
       Time Step   30300   May 15, 2021  02:48:29
       Step Size:    0.177E+00 s, Total Time:    3429.78 s
       Pressure Iterations:      1
       Maximum Velocity Error:  0.18E-03 on Mesh   1 at (   9   8  26)
       Maximum Pressure Error:  0.37E-03 on Mesh   1 at (  17  14   1)
       ---------------------------------------------------------------
       Max CFL number:  0.38E+00 at (  17,  15,  18)
       Max divergence:  0.39E-02 at (  17,  16,   1)
       Min divergence: -0.89E-03 at (  17,  15,  20)
       Max VN number:   0.27E+00 at (  17,  15,  20)
       Radiation Loss to Boundaries:         1.959 kW
 
       Time Step   30400   May 15, 2021  02:48:50
       Step Size:    0.177E+00 s, Total Time:    3447.46 s
       Pressure Iterations:      1
       Maximum Velocity Error:  0.38E-03 on Mesh   1 at (   9  11  27)
       Maximum Pressure Error:  0.25E-03 on Mesh   1 at (  17  14   1)
       ---------------------------------------------------------------
       Max CFL number:  0.38E+00 at (  17,  15,  18)
       Max divergence:  0.35E-02 at (  17,  16,   1)
       Min divergence: -0.90E-03 at (  17,  15,  20)
       Max VN number:   0.27E+00 at (  17,  15,  20)
       Radiation Loss to Boundaries:         1.946 kW
 
       Time Step   30500   May 15, 2021  02:49:11
       Step Size:    0.177E+00 s, Total Time:    3465.14 s
       Pressure Iterations:      1
       Maximum Velocity Error:  0.32E-03 on Mesh   1 at (   9  15  30)
       Maximum Pressure Error:  0.21E-03 on Mesh   1 at (   1   1  38)
       ---------------------------------------------------------------
       Max CFL number:  0.38E+00 at (  17,  15,  18)
       Max divergence:  0.35E-02 at (  17,  16,   1)
       Min divergence: -0.91E-03 at (  17,  15,  20)
       Max VN number:   0.27E+00 at (  17,  15,  20)
       Radiation Loss to Boundaries:         1.935 kW
 
       Time Step   30600   May 15, 2021  02:49:31
       Step Size:    0.177E+00 s, Total Time:    3482.81 s
       Pressure Iterations:      1
       Maximum Velocity Error:  0.16E-03 on Mesh   1 at (   9  12  28)
       Maximum Pressure Error:  0.90E-04 on Mesh   1 at (   1   1  34)
       ---------------------------------------------------------------
       Max CFL number:  0.38E+00 at (  17,  15,  18)
       Max divergence:  0.33E-02 at (  17,  16,   1)
       Min divergence: -0.92E-03 at (  17,  15,  20)
       Max VN number:   0.27E+00 at (  17,  15,  20)
       Radiation Loss to Boundaries:         1.922 kW
 
       Time Step   30700   May 15, 2021  02:49:52
       Step Size:    0.177E+00 s, Total Time:    3500.49 s
       Pressure Iterations:      1
       Maximum Velocity Error:  0.23E-03 on Mesh   1 at (   9  18  29)
       Maximum Pressure Error:  0.24E-03 on Mesh   1 at (  16  15   1)
       ---------------------------------------------------------------
       Max CFL number:  0.37E+00 at (  17,  15,  18)
       Max divergence:  0.36E-02 at (  17,  16,   1)
       Min divergence: -0.16E-02 at (  15,  14,   1)
       Max VN number:   0.27E+00 at (  17,  15,  20)
       Radiation Loss to Boundaries:         1.911 kW
 
       Time Step   30800   May 15, 2021  02:50:13
       Step Size:    0.177E+00 s, Total Time:    3518.17 s
       Pressure Iterations:      1
       Maximum Velocity Error:  0.27E-03 on Mesh   1 at (   9  14  28)
       Maximum Pressure Error:  0.14E-03 on Mesh   1 at (  17  16   1)
       ---------------------------------------------------------------
       Max CFL number:  0.37E+00 at (  17,  15,  18)
       Max divergence:  0.34E-02 at (  17,  16,   1)
       Min divergence: -0.13E-02 at (  15,  14,   1)
       Max VN number:   0.26E+00 at (  17,  15,  20)
       Radiation Loss to Boundaries:         1.902 kW
 
       Time Step   30900   May 15, 2021  02:50:34
       Step Size:    0.177E+00 s, Total Time:    3535.85 s
       Pressure Iterations:      1
       Maximum Velocity Error:  0.33E-03 on Mesh   1 at (   9  13  28)
       Maximum Pressure Error:  0.35E-03 on Mesh   1 at (   1   1  39)
       ---------------------------------------------------------------
       Max CFL number:  0.37E+00 at (  17,  15,  18)
       Max divergence:  0.34E-02 at (  17,  16,   1)
       Min divergence: -0.90E-03 at (  17,  15,  20)
       Max VN number:   0.27E+00 at (  17,  15,  20)
       Radiation Loss to Boundaries:         1.892 kW
 
       Time Step   31000   May 15, 2021  02:50:55
       Step Size:    0.177E+00 s, Total Time:    3553.53 s
       Pressure Iterations:      1
       Maximum Velocity Error:  0.24E-03 on Mesh   1 at (   9  11  27)
       Maximum Pressure Error:  0.19E-03 on Mesh   1 at (  17  14   1)
       ---------------------------------------------------------------
       Max CFL number:  0.38E+00 at (  17,  15,  18)
       Max divergence:  0.32E-02 at (  17,  16,   1)
       Min divergence: -0.89E-03 at (  17,  15,  20)
       Max VN number:   0.27E+00 at (  17,  15,  20)
       Radiation Loss to Boundaries:         1.882 kW
 
       Time Step   31100   May 15, 2021  02:51:15
       Step Size:    0.177E+00 s, Total Time:    3571.20 s
       Pressure Iterations:      1
       Maximum Velocity Error:  0.16E-03 on Mesh   1 at (   9  10  26)
       Maximum Pressure Error:  0.27E-03 on Mesh   1 at (  16  15   1)
       ---------------------------------------------------------------
       Max CFL number:  0.38E+00 at (  17,  15,  18)
       Max divergence:  0.30E-02 at (  17,  16,   1)
       Min divergence: -0.83E-03 at (  17,  15,  20)
       Max VN number:   0.27E+00 at (  17,  15,  20)
       Radiation Loss to Boundaries:         1.874 kW
 
       Time Step   31200   May 15, 2021  02:51:36
       Step Size:    0.177E+00 s, Total Time:    3588.88 s
       Pressure Iterations:      1
       Maximum Velocity Error:  0.23E-03 on Mesh   1 at (   9  15  26)
       Maximum Pressure Error:  0.22E-03 on Mesh   1 at (  17  14   1)
       ---------------------------------------------------------------
       Max CFL number:  0.38E+00 at (  17,  15,  18)
       Max divergence:  0.32E-02 at (  17,  16,   1)
       Min divergence: -0.87E-03 at (  17,  15,  20)
       Max VN number:   0.27E+00 at (  17,  15,  20)
       Radiation Loss to Boundaries:         1.862 kW
 
       Time Step   31263   May 15, 2021  02:51:49
       Step Size:    0.159E+00 s, Total Time:    3600.00 s
       Pressure Iterations:      1
       Maximum Velocity Error:  0.17E-03 on Mesh   1 at (   9  15  27)
       Maximum Pressure Error:  0.19E-03 on Mesh   1 at (  17  16   1)
       ---------------------------------------------------------------
       Max CFL number:  0.34E+00 at (  17,  15,  18)
       Max divergence:  0.34E-02 at (  17,  16,   1)
       Min divergence: -0.86E-03 at (  14,  15,   1)
       Max VN number:   0.24E+00 at (  17,  15,  20)
       Radiation Loss to Boundaries:         1.856 kW
 


 Time Stepping Wall Clock Time (s):     7987.704
 Total Elapsed Wall Clock Time (s):     7991.376

STOP: FDS completed successfully (CHID: Tor Faraj)
