
 Fire Dynamics Simulator

 Current Date     : November  2, 2020  20:41:39
 Revision         : FDS6.7.4-0-gbfaa110f1-release
 Revision Date    : Fri Mar 6 10:17:46 2020 -0500
 Compiler         : Intel ifort 19.0.4.245
 Compilation Date : Mon 03/09/2020  04:12 PM

 MPI Enabled;    Number of MPI Processes:       1
 OpenMP Enabled; Number of OpenMP Threads:      4

 MPI version: 3.1
 MPI library version: Intel(R) MPI Library 2019 Update 4 for Windows* OS


 Job TITLE        : Tor Faraj Rockshelter
 Job ID string    : Tor Faraj


 Grid Dimensions, Mesh     1

   Cells in the X Direction            20
   Cells in the Y Direction            60
   Cells in the Z Direction            40
   Number of Grid Cells             48000


 Physical Dimensions, Mesh     1

   Length (m)                      10.000
   Width  (m)                      30.000
   Height (m)                      20.000
   Initial Time Step (s)            0.100

Total Number of Grid Cells         48000


 Miscellaneous Parameters

   Simulation Start Time (s)          0.0
   Simulation End Time (s)         1800.0
   LES Calculation
   Eddy Viscosity:           Deardorff Model (C_DEARDORFF = 0.10)
   Near-wall Eddy Viscosity: Smagorinsky with Van Driest damping (C_SMAGORINSKY = 0.20)
   Turbulent Prandtl Number:         0.50
   Turbulent Schmidt Number:         0.50
   Ambient Temperature (C):         19.44


 Mass Fraction Transformation Matrix to Convert Species Mixtures (Columns) to Primitive Species (Rows)

                         AIR       WOOD      PRODUCTS
   WOOD                  0.000000  1.000000  0.000000
   NITROGEN              0.762624  0.000000  0.646063
   OXYGEN                0.231044  0.000000  0.000000
   CARBON DIOXIDE        0.000592  0.000000  0.255384
   CARBON MONOXIDE       0.000000  0.000000  0.000000
   WATER VAPOR           0.005740  0.000000  0.096258
   SOOT                  0.000000  0.000000  0.002296
   HYDROGEN              0.000000  0.000000  0.000000


 Primitive Species Information

   WOOD
   Gas Species
   Molecular Weight (g/mol)            25.59177
   Ambient Density (kg/m^3)            1.066
   Enthalpy of Formation (J/kg)       -6.50E+06

   NITROGEN
   Gas Species
   Molecular Weight (g/mol)            28.01340
   Ambient Density (kg/m^3)            1.167
   Enthalpy of Formation (J/kg)        0.00E+00

   OXYGEN
   Gas Species
   Molecular Weight (g/mol)            31.99880
   Ambient Density (kg/m^3)            1.333
   Enthalpy of Formation (J/kg)        0.00E+00

   CARBON DIOXIDE
   Gas Species
   Molecular Weight (g/mol)            44.00950
   Ambient Density (kg/m^3)            1.833
   Enthalpy of Formation (J/kg)       -8.94E+06

   CARBON MONOXIDE
   Gas Species
   Molecular Weight (g/mol)            28.01010
   Ambient Density (kg/m^3)            1.167
   Enthalpy of Formation (J/kg)       -3.95E+06

   WATER VAPOR
   Gas Species
   Molecular Weight (g/mol)            18.01528
   Ambient Density (kg/m^3)            0.750
   Enthalpy of Formation (J/kg)       -1.34E+07

   SOOT
   Gas Species
   Molecular Weight (g/mol)            10.91042
   Ambient Density (kg/m^3)            0.454
   Enthalpy of Formation (J/kg)        0.00E+00

   HYDROGEN
   Gas Species
   Molecular Weight (g/mol)             2.01588
   Ambient Density (kg/m^3)            0.084
   Enthalpy of Formation (J/kg)        0.00E+00


 Tracked (Lumped) Species Information

   AIR
   Molecular Weight (g/mol)            28.75545
   Ambient Density (kg/m^3)            1.198
   Initial Mass Fraction               1.000
   Enthalpy of Formation (J/kg)     -8.23E+04

   Sub Species                    Mass Fraction     Mole Fraction
   NITROGEN                       7.626244E-01      7.828257E-01
   OXYGEN                         2.310442E-01      2.076259E-01
   CARBON DIOXIDE                 5.915848E-04      3.865368E-04
   WATER VAPOR                    5.739868E-03      9.161807E-03
 
     Viscosity (kg/m/s) Ambient,  293 K:  1.80E-05
                                  500 K:  2.61E-05
                                 1000 K:  4.13E-05
                                 1500 K:  5.37E-05
   Therm. Cond. (W/m/K) Ambient,  293 K:  2.56E-02
                                  500 K:  3.81E-02
                                 1000 K:  6.69E-02
                                 1500 K:  9.25E-02
        Enthalpy (J/kg) Ambient,  293 K: -8.80E+04
                                  500 K:  1.25E+05
                                 1000 K:  6.75E+05
                                 1500 K:  1.27E+06
    Spec. Heat (J/kg/K) Ambient,  293 K:  1.02E+03
                                  500 K:  1.04E+03
                                 1000 K:  1.16E+03
                                 1500 K:  1.23E+03
   Diff. Coeff. (m^2/s) Ambient,  293 K:  1.99E-05
                                  500 K:  4.96E-05
                                 1000 K:  1.58E-04
                                 1500 K:  3.09E-04

   WOOD
   Molecular Weight (g/mol)            25.59177
   Ambient Density (kg/m^3)            1.066
   Initial Mass Fraction               0.000
   Enthalpy of Formation (J/kg)     -6.50E+06

   Sub Species                    Mass Fraction     Mole Fraction
   WOOD                           1.000000E+00      1.000000E+00
 
     Viscosity (kg/m/s) Ambient,  293 K:  1.66E-05
                                  500 K:  2.40E-05
                                 1000 K:  3.77E-05
                                 1500 K:  4.91E-05
   Therm. Cond. (W/m/K) Ambient,  293 K:  2.66E-02
                                  500 K:  3.84E-02
                                 1000 K:  6.04E-02
                                 1500 K:  7.86E-02
        Enthalpy (J/kg) Ambient,  293 K: -6.51E+06
                                  500 K: -6.28E+06
                                 1000 K: -5.71E+06
                                 1500 K: -5.14E+06
    Spec. Heat (J/kg/K) Ambient,  293 K:  1.14E+03
                                  500 K:  1.14E+03
                                 1000 K:  1.14E+03
                                 1500 K:  1.14E+03
   Diff. Coeff. (m^2/s) Ambient,  293 K:  2.03E-05
                                  500 K:  5.05E-05
                                 1000 K:  1.60E-04
                                 1500 K:  3.14E-04

   PRODUCTS
   Molecular Weight (g/mol)            29.05364
   Ambient Density (kg/m^3)            1.210
   Initial Mass Fraction               0.000
   Enthalpy of Formation (J/kg)     -3.58E+06

   Sub Species                    Mass Fraction     Mole Fraction
   NITROGEN                       6.460627E-01      6.700532E-01
   CARBON DIOXIDE                 2.553837E-01      1.685960E-01
   CARBON MONOXIDE                0.000000E+00      0.000000E+00
   WATER VAPOR                    9.625766E-02      1.552368E-01
   SOOT                           2.295938E-03      6.113911E-03
 
     Viscosity (kg/m/s) Ambient,  293 K:  1.60E-05
                                  500 K:  2.38E-05
                                 1000 K:  3.89E-05
                                 1500 K:  5.14E-05
   Therm. Cond. (W/m/K) Ambient,  293 K:  2.29E-02
                                  500 K:  3.58E-02
                                 1000 K:  6.70E-02
                                 1500 K:  9.61E-02
        Enthalpy (J/kg) Ambient,  293 K: -3.58E+06
                                  500 K: -3.35E+06
                                 1000 K: -2.75E+06
                                 1500 K: -2.07E+06
    Spec. Heat (J/kg/K) Ambient,  293 K:  1.07E+03
                                  500 K:  1.13E+03
                                 1000 K:  1.29E+03
                                 1500 K:  1.40E+03
   Diff. Coeff. (m^2/s) Ambient,  293 K:  1.93E-05
                                  500 K:  4.90E-05
                                 1000 K:  1.58E-04
                                 1500 K:  3.11E-04


 Gas Phase Reaction Information

   Tewarson, SFPE Handbook, Douglas Fir

   Reaction ID:  WOOD

   Fuel                                           Heat of Combustion (kJ/kg)
   WOOD                                                           16400.0000

   Stoichiometry

   Primitive Species Stoich. Coeff.
   Species ID                                                          Molar
   WOOD                                                            -1.000000
   NITROGEN                                                         0.001000
   OXYGEN                                                          -1.022454
   CARBON DIOXIDE                                                   0.968334
   WATER VAPOR                                                      0.848241
   SOOT                                                             0.035184

   Tracked (Lumped) Species Stoich. Coeff.
   Species ID                                             Molar         Mass
   AIR                                                -4.924503    -5.533276
   WOOD                                               -1.000000    -1.000000
   PRODUCTS                                            5.754808     6.533276

   Reaction Kinetics

   Arrhenius Parameters
   Pre-exponential:    Infinite
   Activation Energy:  N/A

   ODE Solver:  EXPLICIT EULER
   Extinction Model:  EXTINCTION 2
   Auto-Ignition Temperature (K):       0.0
   Critical Flame Temperature (K):   1700.2


 Material Information

   1 CONCRETE                                                    
     Emissivity                      0.900
     Density (kg/m3)                2400.0
     Specific Heat (kJ/kg/K)      7.50E-01
     Conductivity (W/m/K)           1.6000

   2 ROCK                                                        
     Emissivity                      0.900
     Density (kg/m3)                2400.0
     Specific Heat (kJ/kg/K)      7.50E-01
     Conductivity (W/m/K)           3.0000


 Surface Conditions

   0 INERT

   1 CONCRETE WALL (DEFAULT)
     Material List
          1  CONCRETE
     Layer  1
        Thickness   (m):  0.50000
        Density (kg/m3):  2400.00
        CONCRETE, Mass fraction:    1.00
     Total surface density  1200.000 kg/m2
     Reaction products considered from the first  0.50 layers.
     Solid Phase Node, Layer, Coordinates(m):
                    0      1       0.0000000
                    1      1       0.0006527
                    2      1       0.0019582
                    3      1       0.0045692
                    4      1       0.0097911
                    5      1       0.0202350
                    6      1       0.0411227
                    7      1       0.0828982
                    8      1       0.1664491
                    9      1       0.3335509
                   10      1       0.4171018
                   11      1       0.4588773
                   12      1       0.4797650
                   13      1       0.4902089
                   14      1       0.4954308
                   15      1       0.4980418
                   16      1       0.4993473
                   17      1       0.5000000
     Exposed Backing

   2 ROCK WALL
     Material List
          1  ROCK
     Layer  1
        Thickness   (m):  0.50000
        Density (kg/m3):  2400.00
        ROCK, Mass fraction:    1.00
     Total surface density  1200.000 kg/m2
     Reaction products considered from the first  0.50 layers.
     Solid Phase Node, Layer, Coordinates(m):
                    0      1       0.0000000
                    1      1       0.0009804
                    2      1       0.0029412
                    3      1       0.0068627
                    4      1       0.0147059
                    5      1       0.0303922
                    6      1       0.0617647
                    7      1       0.1245098
                    8      1       0.2500000
                    9      1       0.3754902
                   10      1       0.4382353
                   11      1       0.4696078
                   12      1       0.4852941
                   13      1       0.4931373
                   14      1       0.4970588
                   15      1       0.4990196
                   16      1       0.5000000
     Exposed Backing

   3 FIRE
     HRR Per Unit Area (kW/m2)         90.0
     WOOD Mass Flux (kg/s/m2)   5.49E-03

   4 OPEN
     Passive Vent to Atmosphere

   5 MIRROR
     Symmetry Plane

   6 INTERPOLATED

   7 PERIODIC

   8 HVAC

   9 MASSLESS TRACER

  10 DROPLET

  11 EVACUATION_OUTFLOW
     Normal Velocity (m/s)         0.000

  12 MASSLESS TARGET

  13 PERIODIC WIND

  14 SLICE


 Device Coordinates

     1 Coords:      4.500000      2.500000      0.500000, Make: null, ID: soot_45_25_05, Quantity: DENSITY, Species: SOOT
     2 Coords:      5.000000      2.500000      0.500000, Make: null, ID: soot_50_25_05, Quantity: DENSITY, Species: SOOT
     3 Coords:      5.500000      2.500000      0.500000, Make: null, ID: soot_55_25_05, Quantity: DENSITY, Species: SOOT
     4 Coords:      6.000000      2.500000      0.500000, Make: null, ID: soot_60_25_05, Quantity: DENSITY, Species: SOOT
     5 Coords:      6.500000      2.500000      0.500000, Make: null, ID: soot_65_25_05, Quantity: DENSITY, Species: SOOT
     6 Coords:      7.000000      2.500000      0.500000, Make: null, ID: soot_70_25_05, Quantity: DENSITY, Species: SOOT
     7 Coords:      7.500000      2.500000      0.500000, Make: null, ID: soot_75_25_05, Quantity: DENSITY, Species: SOOT
     8 Coords:      8.000000      2.500000      0.500000, Make: null, ID: soot_80_25_05, Quantity: DENSITY, Species: SOOT
     9 Coords:      8.500000      2.500000      0.500000, Make: null, ID: soot_85_25_05, Quantity: DENSITY, Species: SOOT
    10 Coords:      4.500000      2.500000      1.000000, Make: null, ID: soot_45_25_10, Quantity: DENSITY, Species: SOOT
    11 Coords:      5.000000      2.500000      1.000000, Make: null, ID: soot_50_25_10, Quantity: DENSITY, Species: SOOT
    12 Coords:      5.500000      2.500000      1.000000, Make: null, ID: soot_55_25_10, Quantity: DENSITY, Species: SOOT
    13 Coords:      6.000000      2.500000      1.000000, Make: null, ID: soot_60_25_10, Quantity: DENSITY, Species: SOOT
    14 Coords:      6.500000      2.500000      1.000000, Make: null, ID: soot_65_25_10, Quantity: DENSITY, Species: SOOT
    15 Coords:      7.000000      2.500000      1.000000, Make: null, ID: soot_70_25_10, Quantity: DENSITY, Species: SOOT
    16 Coords:      7.500000      2.500000      1.000000, Make: null, ID: soot_75_25_10, Quantity: DENSITY, Species: SOOT
    17 Coords:      8.000000      2.500000      1.000000, Make: null, ID: soot_80_25_10, Quantity: DENSITY, Species: SOOT
    18 Coords:      8.500000      2.500000      1.000000, Make: null, ID: soot_85_25_10, Quantity: DENSITY, Species: SOOT
    19 Coords:      4.500000      2.500000      1.500000, Make: null, ID: soot_45_25_15, Quantity: DENSITY, Species: SOOT
    20 Coords:      5.000000      2.500000      1.500000, Make: null, ID: soot_50_25_15, Quantity: DENSITY, Species: SOOT
    21 Coords:      5.500000      2.500000      1.500000, Make: null, ID: soot_55_25_15, Quantity: DENSITY, Species: SOOT
    22 Coords:      6.000000      2.500000      1.500000, Make: null, ID: soot_60_25_15, Quantity: DENSITY, Species: SOOT
    23 Coords:      6.500000      2.500000      1.500000, Make: null, ID: soot_65_25_15, Quantity: DENSITY, Species: SOOT
    24 Coords:      7.000000      2.500000      1.500000, Make: null, ID: soot_70_25_15, Quantity: DENSITY, Species: SOOT
    25 Coords:      7.500000      2.500000      1.500000, Make: null, ID: soot_75_25_15, Quantity: DENSITY, Species: SOOT
    26 Coords:      8.000000      2.500000      1.500000, Make: null, ID: soot_80_25_15, Quantity: DENSITY, Species: SOOT
    27 Coords:      8.500000      2.500000      1.500000, Make: null, ID: soot_85_25_15, Quantity: DENSITY, Species: SOOT
    28 Coords:      4.500000      2.500000      2.000000, Make: null, ID: soot_45_25_20, Quantity: DENSITY, Species: SOOT
    29 Coords:      5.000000      2.500000      2.000000, Make: null, ID: soot_50_25_20, Quantity: DENSITY, Species: SOOT
    30 Coords:      5.500000      2.500000      2.000000, Make: null, ID: soot_55_25_20, Quantity: DENSITY, Species: SOOT
    31 Coords:      6.000000      2.500000      2.000000, Make: null, ID: soot_60_25_20, Quantity: DENSITY, Species: SOOT
    32 Coords:      6.500000      2.500000      2.000000, Make: null, ID: soot_65_25_20, Quantity: DENSITY, Species: SOOT
    33 Coords:      7.000000      2.500000      2.000000, Make: null, ID: soot_70_25_20, Quantity: DENSITY, Species: SOOT
    34 Coords:      7.500000      2.500000      2.000000, Make: null, ID: soot_75_25_20, Quantity: DENSITY, Species: SOOT
    35 Coords:      8.000000      2.500000      2.000000, Make: null, ID: soot_80_25_20, Quantity: DENSITY, Species: SOOT
    36 Coords:      8.500000      2.500000      2.000000, Make: null, ID: soot_85_25_20, Quantity: DENSITY, Species: SOOT
    37 Coords:      4.500000      2.500000      2.500000, Make: null, ID: soot_45_25_25, Quantity: DENSITY, Species: SOOT
    38 Coords:      5.000000      2.500000      2.500000, Make: null, ID: soot_50_25_25, Quantity: DENSITY, Species: SOOT
    39 Coords:      5.500000      2.500000      2.500000, Make: null, ID: soot_55_25_25, Quantity: DENSITY, Species: SOOT
    40 Coords:      6.000000      2.500000      2.500000, Make: null, ID: soot_60_25_25, Quantity: DENSITY, Species: SOOT
    41 Coords:      6.500000      2.500000      2.500000, Make: null, ID: soot_65_25_25, Quantity: DENSITY, Species: SOOT
    42 Coords:      7.000000      2.500000      2.500000, Make: null, ID: soot_70_25_25, Quantity: DENSITY, Species: SOOT
    43 Coords:      7.500000      2.500000      2.500000, Make: null, ID: soot_75_25_25, Quantity: DENSITY, Species: SOOT
    44 Coords:      8.000000      2.500000      2.500000, Make: null, ID: soot_80_25_25, Quantity: DENSITY, Species: SOOT
    45 Coords:      8.500000      2.500000      2.500000, Make: null, ID: soot_85_25_25, Quantity: DENSITY, Species: SOOT
    46 Coords:      4.500000      2.500000      3.000000, Make: null, ID: soot_45_25_30, Quantity: DENSITY, Species: SOOT
    47 Coords:      5.000000      2.500000      3.000000, Make: null, ID: soot_50_25_30, Quantity: DENSITY, Species: SOOT
    48 Coords:      5.500000      2.500000      3.000000, Make: null, ID: soot_55_25_30, Quantity: DENSITY, Species: SOOT
    49 Coords:      6.000000      2.500000      3.000000, Make: null, ID: soot_60_25_30, Quantity: DENSITY, Species: SOOT
    50 Coords:      6.500000      2.500000      3.000000, Make: null, ID: soot_65_25_30, Quantity: DENSITY, Species: SOOT
    51 Coords:      7.000000      2.500000      3.000000, Make: null, ID: soot_70_25_30, Quantity: DENSITY, Species: SOOT
    52 Coords:      7.500000      2.500000      3.000000, Make: null, ID: soot_75_25_30, Quantity: DENSITY, Species: SOOT
    53 Coords:      8.000000      2.500000      3.000000, Make: null, ID: soot_80_25_30, Quantity: DENSITY, Species: SOOT
    54 Coords:      8.500000      2.500000      3.000000, Make: null, ID: soot_85_25_30, Quantity: DENSITY, Species: SOOT
    55 Coords:      4.500000      3.000000      0.500000, Make: null, ID: soot_45_30_05, Quantity: DENSITY, Species: SOOT
    56 Coords:      5.000000      3.000000      0.500000, Make: null, ID: soot_50_30_05, Quantity: DENSITY, Species: SOOT
    57 Coords:      5.500000      3.000000      0.500000, Make: null, ID: soot_55_30_05, Quantity: DENSITY, Species: SOOT
    58 Coords:      6.000000      3.000000      0.500000, Make: null, ID: soot_60_30_05, Quantity: DENSITY, Species: SOOT
    59 Coords:      6.500000      3.000000      0.500000, Make: null, ID: soot_65_30_05, Quantity: DENSITY, Species: SOOT
    60 Coords:      7.000000      3.000000      0.500000, Make: null, ID: soot_70_30_05, Quantity: DENSITY, Species: SOOT
    61 Coords:      7.500000      3.000000      0.500000, Make: null, ID: soot_75_30_05, Quantity: DENSITY, Species: SOOT
    62 Coords:      8.000000      3.000000      0.500000, Make: null, ID: soot_80_30_05, Quantity: DENSITY, Species: SOOT
    63 Coords:      8.500000      3.000000      0.500000, Make: null, ID: soot_85_30_05, Quantity: DENSITY, Species: SOOT
    64 Coords:      4.500000      3.000000      1.000000, Make: null, ID: soot_45_30_10, Quantity: DENSITY, Species: SOOT
    65 Coords:      5.000000      3.000000      1.000000, Make: null, ID: soot_50_30_10, Quantity: DENSITY, Species: SOOT
    66 Coords:      5.500000      3.000000      1.000000, Make: null, ID: soot_55_30_10, Quantity: DENSITY, Species: SOOT
    67 Coords:      6.000000      3.000000      1.000000, Make: null, ID: soot_60_30_10, Quantity: DENSITY, Species: SOOT
    68 Coords:      6.500000      3.000000      1.000000, Make: null, ID: soot_65_30_10, Quantity: DENSITY, Species: SOOT
    69 Coords:      7.000000      3.000000      1.000000, Make: null, ID: soot_70_30_10, Quantity: DENSITY, Species: SOOT
    70 Coords:      7.500000      3.000000      1.000000, Make: null, ID: soot_75_30_10, Quantity: DENSITY, Species: SOOT
    71 Coords:      8.000000      3.000000      1.000000, Make: null, ID: soot_80_30_10, Quantity: DENSITY, Species: SOOT
    72 Coords:      8.500000      3.000000      1.000000, Make: null, ID: soot_85_30_10, Quantity: DENSITY, Species: SOOT
    73 Coords:      4.500000      3.000000      1.500000, Make: null, ID: soot_45_30_15, Quantity: DENSITY, Species: SOOT
    74 Coords:      5.000000      3.000000      1.500000, Make: null, ID: soot_50_30_15, Quantity: DENSITY, Species: SOOT
    75 Coords:      5.500000      3.000000      1.500000, Make: null, ID: soot_55_30_15, Quantity: DENSITY, Species: SOOT
    76 Coords:      6.000000      3.000000      1.500000, Make: null, ID: soot_60_30_15, Quantity: DENSITY, Species: SOOT
    77 Coords:      6.500000      3.000000      1.500000, Make: null, ID: soot_65_30_15, Quantity: DENSITY, Species: SOOT
    78 Coords:      7.000000      3.000000      1.500000, Make: null, ID: soot_70_30_15, Quantity: DENSITY, Species: SOOT
    79 Coords:      7.500000      3.000000      1.500000, Make: null, ID: soot_75_30_15, Quantity: DENSITY, Species: SOOT
    80 Coords:      8.000000      3.000000      1.500000, Make: null, ID: soot_80_30_15, Quantity: DENSITY, Species: SOOT
    81 Coords:      8.500000      3.000000      1.500000, Make: null, ID: soot_85_30_15, Quantity: DENSITY, Species: SOOT
    82 Coords:      4.500000      3.000000      2.000000, Make: null, ID: soot_45_30_20, Quantity: DENSITY, Species: SOOT
    83 Coords:      5.000000      3.000000      2.000000, Make: null, ID: soot_50_30_20, Quantity: DENSITY, Species: SOOT
    84 Coords:      5.500000      3.000000      2.000000, Make: null, ID: soot_55_30_20, Quantity: DENSITY, Species: SOOT
    85 Coords:      6.000000      3.000000      2.000000, Make: null, ID: soot_60_30_20, Quantity: DENSITY, Species: SOOT
    86 Coords:      6.500000      3.000000      2.000000, Make: null, ID: soot_65_30_20, Quantity: DENSITY, Species: SOOT
    87 Coords:      7.000000      3.000000      2.000000, Make: null, ID: soot_70_30_20, Quantity: DENSITY, Species: SOOT
    88 Coords:      7.500000      3.000000      2.000000, Make: null, ID: soot_75_30_20, Quantity: DENSITY, Species: SOOT
    89 Coords:      8.000000      3.000000      2.000000, Make: null, ID: soot_80_30_20, Quantity: DENSITY, Species: SOOT
    90 Coords:      8.500000      3.000000      2.000000, Make: null, ID: soot_85_30_20, Quantity: DENSITY, Species: SOOT
    91 Coords:      4.500000      3.000000      2.500000, Make: null, ID: soot_45_30_25, Quantity: DENSITY, Species: SOOT
    92 Coords:      5.000000      3.000000      2.500000, Make: null, ID: soot_50_30_25, Quantity: DENSITY, Species: SOOT
    93 Coords:      5.500000      3.000000      2.500000, Make: null, ID: soot_55_30_25, Quantity: DENSITY, Species: SOOT
    94 Coords:      6.000000      3.000000      2.500000, Make: null, ID: soot_60_30_25, Quantity: DENSITY, Species: SOOT
    95 Coords:      6.500000      3.000000      2.500000, Make: null, ID: soot_65_30_25, Quantity: DENSITY, Species: SOOT
    96 Coords:      7.000000      3.000000      2.500000, Make: null, ID: soot_70_30_25, Quantity: DENSITY, Species: SOOT
    97 Coords:      7.500000      3.000000      2.500000, Make: null, ID: soot_75_30_25, Quantity: DENSITY, Species: SOOT
    98 Coords:      8.000000      3.000000      2.500000, Make: null, ID: soot_80_30_25, Quantity: DENSITY, Species: SOOT
    99 Coords:      8.500000      3.000000      2.500000, Make: null, ID: soot_85_30_25, Quantity: DENSITY, Species: SOOT
   100 Coords:      4.500000      3.000000      3.000000, Make: null, ID: soot_45_30_30, Quantity: DENSITY, Species: SOOT
   101 Coords:      5.000000      3.000000      3.000000, Make: null, ID: soot_50_30_30, Quantity: DENSITY, Species: SOOT
   102 Coords:      5.500000      3.000000      3.000000, Make: null, ID: soot_55_30_30, Quantity: DENSITY, Species: SOOT
   103 Coords:      6.000000      3.000000      3.000000, Make: null, ID: soot_60_30_30, Quantity: DENSITY, Species: SOOT
   104 Coords:      6.500000      3.000000      3.000000, Make: null, ID: soot_65_30_30, Quantity: DENSITY, Species: SOOT
   105 Coords:      7.000000      3.000000      3.000000, Make: null, ID: soot_70_30_30, Quantity: DENSITY, Species: SOOT
   106 Coords:      7.500000      3.000000      3.000000, Make: null, ID: soot_75_30_30, Quantity: DENSITY, Species: SOOT
   107 Coords:      8.000000      3.000000      3.000000, Make: null, ID: soot_80_30_30, Quantity: DENSITY, Species: SOOT
   108 Coords:      8.500000      3.000000      3.000000, Make: null, ID: soot_85_30_30, Quantity: DENSITY, Species: SOOT
   109 Coords:      4.500000      3.500000      0.500000, Make: null, ID: soot_45_35_05, Quantity: DENSITY, Species: SOOT
   110 Coords:      5.000000      3.500000      0.500000, Make: null, ID: soot_50_35_05, Quantity: DENSITY, Species: SOOT
   111 Coords:      5.500000      3.500000      0.500000, Make: null, ID: soot_55_35_05, Quantity: DENSITY, Species: SOOT
   112 Coords:      6.000000      3.500000      0.500000, Make: null, ID: soot_60_35_05, Quantity: DENSITY, Species: SOOT
   113 Coords:      6.500000      3.500000      0.500000, Make: null, ID: soot_65_35_05, Quantity: DENSITY, Species: SOOT
   114 Coords:      7.000000      3.500000      0.500000, Make: null, ID: soot_70_35_05, Quantity: DENSITY, Species: SOOT
   115 Coords:      7.500000      3.500000      0.500000, Make: null, ID: soot_75_35_05, Quantity: DENSITY, Species: SOOT
   116 Coords:      8.000000      3.500000      0.500000, Make: null, ID: soot_80_35_05, Quantity: DENSITY, Species: SOOT
   117 Coords:      8.500000      3.500000      0.500000, Make: null, ID: soot_85_35_05, Quantity: DENSITY, Species: SOOT
   118 Coords:      4.500000      3.500000      1.000000, Make: null, ID: soot_45_35_10, Quantity: DENSITY, Species: SOOT
   119 Coords:      5.000000      3.500000      1.000000, Make: null, ID: soot_50_35_10, Quantity: DENSITY, Species: SOOT
   120 Coords:      5.500000      3.500000      1.000000, Make: null, ID: soot_55_35_10, Quantity: DENSITY, Species: SOOT
   121 Coords:      6.000000      3.500000      1.000000, Make: null, ID: soot_60_35_10, Quantity: DENSITY, Species: SOOT
   122 Coords:      6.500000      3.500000      1.000000, Make: null, ID: soot_65_35_10, Quantity: DENSITY, Species: SOOT
   123 Coords:      7.000000      3.500000      1.000000, Make: null, ID: soot_70_35_10, Quantity: DENSITY, Species: SOOT
   124 Coords:      7.500000      3.500000      1.000000, Make: null, ID: soot_75_35_10, Quantity: DENSITY, Species: SOOT
   125 Coords:      8.000000      3.500000      1.000000, Make: null, ID: soot_80_35_10, Quantity: DENSITY, Species: SOOT
   126 Coords:      8.500000      3.500000      1.000000, Make: null, ID: soot_85_35_10, Quantity: DENSITY, Species: SOOT
   127 Coords:      4.500000      3.500000      1.500000, Make: null, ID: soot_45_35_15, Quantity: DENSITY, Species: SOOT
   128 Coords:      5.000000      3.500000      1.500000, Make: null, ID: soot_50_35_15, Quantity: DENSITY, Species: SOOT
   129 Coords:      5.500000      3.500000      1.500000, Make: null, ID: soot_55_35_15, Quantity: DENSITY, Species: SOOT
   130 Coords:      6.000000      3.500000      1.500000, Make: null, ID: soot_60_35_15, Quantity: DENSITY, Species: SOOT
   131 Coords:      6.500000      3.500000      1.500000, Make: null, ID: soot_65_35_15, Quantity: DENSITY, Species: SOOT
   132 Coords:      7.000000      3.500000      1.500000, Make: null, ID: soot_70_35_15, Quantity: DENSITY, Species: SOOT
   133 Coords:      7.500000      3.500000      1.500000, Make: null, ID: soot_75_35_15, Quantity: DENSITY, Species: SOOT
   134 Coords:      8.000000      3.500000      1.500000, Make: null, ID: soot_80_35_15, Quantity: DENSITY, Species: SOOT
   135 Coords:      8.500000      3.500000      1.500000, Make: null, ID: soot_85_35_15, Quantity: DENSITY, Species: SOOT
   136 Coords:      4.500000      3.500000      2.000000, Make: null, ID: soot_45_35_20, Quantity: DENSITY, Species: SOOT
   137 Coords:      5.000000      3.500000      2.000000, Make: null, ID: soot_50_35_20, Quantity: DENSITY, Species: SOOT
   138 Coords:      5.500000      3.500000      2.000000, Make: null, ID: soot_55_35_20, Quantity: DENSITY, Species: SOOT
   139 Coords:      6.000000      3.500000      2.000000, Make: null, ID: soot_60_35_20, Quantity: DENSITY, Species: SOOT
   140 Coords:      6.500000      3.500000      2.000000, Make: null, ID: soot_65_35_20, Quantity: DENSITY, Species: SOOT
   141 Coords:      7.000000      3.500000      2.000000, Make: null, ID: soot_70_35_20, Quantity: DENSITY, Species: SOOT
   142 Coords:      7.500000      3.500000      2.000000, Make: null, ID: soot_75_35_20, Quantity: DENSITY, Species: SOOT
   143 Coords:      8.000000      3.500000      2.000000, Make: null, ID: soot_80_35_20, Quantity: DENSITY, Species: SOOT
   144 Coords:      8.500000      3.500000      2.000000, Make: null, ID: soot_85_35_20, Quantity: DENSITY, Species: SOOT
   145 Coords:      4.500000      3.500000      2.500000, Make: null, ID: soot_45_35_25, Quantity: DENSITY, Species: SOOT
   146 Coords:      5.000000      3.500000      2.500000, Make: null, ID: soot_50_35_25, Quantity: DENSITY, Species: SOOT
   147 Coords:      5.500000      3.500000      2.500000, Make: null, ID: soot_55_35_25, Quantity: DENSITY, Species: SOOT
   148 Coords:      6.000000      3.500000      2.500000, Make: null, ID: soot_60_35_25, Quantity: DENSITY, Species: SOOT
   149 Coords:      6.500000      3.500000      2.500000, Make: null, ID: soot_65_35_25, Quantity: DENSITY, Species: SOOT
   150 Coords:      7.000000      3.500000      2.500000, Make: null, ID: soot_70_35_25, Quantity: DENSITY, Species: SOOT
   151 Coords:      7.500000      3.500000      2.500000, Make: null, ID: soot_75_35_25, Quantity: DENSITY, Species: SOOT
   152 Coords:      8.000000      3.500000      2.500000, Make: null, ID: soot_80_35_25, Quantity: DENSITY, Species: SOOT
   153 Coords:      8.500000      3.500000      2.500000, Make: null, ID: soot_85_35_25, Quantity: DENSITY, Species: SOOT
   154 Coords:      4.500000      3.500000      3.000000, Make: null, ID: soot_45_35_30, Quantity: DENSITY, Species: SOOT
   155 Coords:      5.000000      3.500000      3.000000, Make: null, ID: soot_50_35_30, Quantity: DENSITY, Species: SOOT
   156 Coords:      5.500000      3.500000      3.000000, Make: null, ID: soot_55_35_30, Quantity: DENSITY, Species: SOOT
   157 Coords:      6.000000      3.500000      3.000000, Make: null, ID: soot_60_35_30, Quantity: DENSITY, Species: SOOT
   158 Coords:      6.500000      3.500000      3.000000, Make: null, ID: soot_65_35_30, Quantity: DENSITY, Species: SOOT
   159 Coords:      7.000000      3.500000      3.000000, Make: null, ID: soot_70_35_30, Quantity: DENSITY, Species: SOOT
   160 Coords:      7.500000      3.500000      3.000000, Make: null, ID: soot_75_35_30, Quantity: DENSITY, Species: SOOT
   161 Coords:      8.000000      3.500000      3.000000, Make: null, ID: soot_80_35_30, Quantity: DENSITY, Species: SOOT
   162 Coords:      8.500000      3.500000      3.000000, Make: null, ID: soot_85_35_30, Quantity: DENSITY, Species: SOOT
   163 Coords:      4.500000      4.000000      0.500000, Make: null, ID: soot_45_40_05, Quantity: DENSITY, Species: SOOT
   164 Coords:      5.000000      4.000000      0.500000, Make: null, ID: soot_50_40_05, Quantity: DENSITY, Species: SOOT
   165 Coords:      5.500000      4.000000      0.500000, Make: null, ID: soot_55_40_05, Quantity: DENSITY, Species: SOOT
   166 Coords:      6.000000      4.000000      0.500000, Make: null, ID: soot_60_40_05, Quantity: DENSITY, Species: SOOT
   167 Coords:      6.500000      4.000000      0.500000, Make: null, ID: soot_65_40_05, Quantity: DENSITY, Species: SOOT
   168 Coords:      7.000000      4.000000      0.500000, Make: null, ID: soot_70_40_05, Quantity: DENSITY, Species: SOOT
   169 Coords:      7.500000      4.000000      0.500000, Make: null, ID: soot_75_40_05, Quantity: DENSITY, Species: SOOT
   170 Coords:      8.000000      4.000000      0.500000, Make: null, ID: soot_80_40_05, Quantity: DENSITY, Species: SOOT
   171 Coords:      8.500000      4.000000      0.500000, Make: null, ID: soot_85_40_05, Quantity: DENSITY, Species: SOOT
   172 Coords:      4.500000      4.000000      1.000000, Make: null, ID: soot_45_40_10, Quantity: DENSITY, Species: SOOT
   173 Coords:      5.000000      4.000000      1.000000, Make: null, ID: soot_50_40_10, Quantity: DENSITY, Species: SOOT
   174 Coords:      5.500000      4.000000      1.000000, Make: null, ID: soot_55_40_10, Quantity: DENSITY, Species: SOOT
   175 Coords:      6.000000      4.000000      1.000000, Make: null, ID: soot_60_40_10, Quantity: DENSITY, Species: SOOT
   176 Coords:      6.500000      4.000000      1.000000, Make: null, ID: soot_65_40_10, Quantity: DENSITY, Species: SOOT
   177 Coords:      7.000000      4.000000      1.000000, Make: null, ID: soot_70_40_10, Quantity: DENSITY, Species: SOOT
   178 Coords:      7.500000      4.000000      1.000000, Make: null, ID: soot_75_40_10, Quantity: DENSITY, Species: SOOT
   179 Coords:      8.000000      4.000000      1.000000, Make: null, ID: soot_80_40_10, Quantity: DENSITY, Species: SOOT
   180 Coords:      8.500000      4.000000      1.000000, Make: null, ID: soot_85_40_10, Quantity: DENSITY, Species: SOOT
   181 Coords:      4.500000      4.000000      1.500000, Make: null, ID: soot_45_40_15, Quantity: DENSITY, Species: SOOT
   182 Coords:      5.000000      4.000000      1.500000, Make: null, ID: soot_50_40_15, Quantity: DENSITY, Species: SOOT
   183 Coords:      5.500000      4.000000      1.500000, Make: null, ID: soot_55_40_15, Quantity: DENSITY, Species: SOOT
   184 Coords:      6.000000      4.000000      1.500000, Make: null, ID: soot_60_40_15, Quantity: DENSITY, Species: SOOT
   185 Coords:      6.500000      4.000000      1.500000, Make: null, ID: soot_65_40_15, Quantity: DENSITY, Species: SOOT
   186 Coords:      7.000000      4.000000      1.500000, Make: null, ID: soot_70_40_15, Quantity: DENSITY, Species: SOOT
   187 Coords:      7.500000      4.000000      1.500000, Make: null, ID: soot_75_40_15, Quantity: DENSITY, Species: SOOT
   188 Coords:      8.000000      4.000000      1.500000, Make: null, ID: soot_80_40_15, Quantity: DENSITY, Species: SOOT
   189 Coords:      8.500000      4.000000      1.500000, Make: null, ID: soot_85_40_15, Quantity: DENSITY, Species: SOOT
   190 Coords:      4.500000      4.000000      2.000000, Make: null, ID: soot_45_40_20, Quantity: DENSITY, Species: SOOT
   191 Coords:      5.000000      4.000000      2.000000, Make: null, ID: soot_50_40_20, Quantity: DENSITY, Species: SOOT
   192 Coords:      5.500000      4.000000      2.000000, Make: null, ID: soot_55_40_20, Quantity: DENSITY, Species: SOOT
   193 Coords:      6.000000      4.000000      2.000000, Make: null, ID: soot_60_40_20, Quantity: DENSITY, Species: SOOT
   194 Coords:      6.500000      4.000000      2.000000, Make: null, ID: soot_65_40_20, Quantity: DENSITY, Species: SOOT
   195 Coords:      7.000000      4.000000      2.000000, Make: null, ID: soot_70_40_20, Quantity: DENSITY, Species: SOOT
   196 Coords:      7.500000      4.000000      2.000000, Make: null, ID: soot_75_40_20, Quantity: DENSITY, Species: SOOT
   197 Coords:      8.000000      4.000000      2.000000, Make: null, ID: soot_80_40_20, Quantity: DENSITY, Species: SOOT
   198 Coords:      8.500000      4.000000      2.000000, Make: null, ID: soot_85_40_20, Quantity: DENSITY, Species: SOOT
   199 Coords:      4.500000      4.000000      2.500000, Make: null, ID: soot_45_40_25, Quantity: DENSITY, Species: SOOT
   200 Coords:      5.000000      4.000000      2.500000, Make: null, ID: soot_50_40_25, Quantity: DENSITY, Species: SOOT
   201 Coords:      5.500000      4.000000      2.500000, Make: null, ID: soot_55_40_25, Quantity: DENSITY, Species: SOOT
   202 Coords:      6.000000      4.000000      2.500000, Make: null, ID: soot_60_40_25, Quantity: DENSITY, Species: SOOT
   203 Coords:      6.500000      4.000000      2.500000, Make: null, ID: soot_65_40_25, Quantity: DENSITY, Species: SOOT
   204 Coords:      7.000000      4.000000      2.500000, Make: null, ID: soot_70_40_25, Quantity: DENSITY, Species: SOOT
   205 Coords:      7.500000      4.000000      2.500000, Make: null, ID: soot_75_40_25, Quantity: DENSITY, Species: SOOT
   206 Coords:      8.000000      4.000000      2.500000, Make: null, ID: soot_80_40_25, Quantity: DENSITY, Species: SOOT
   207 Coords:      8.500000      4.000000      2.500000, Make: null, ID: soot_85_40_25, Quantity: DENSITY, Species: SOOT
   208 Coords:      4.500000      4.000000      3.000000, Make: null, ID: soot_45_40_30, Quantity: DENSITY, Species: SOOT
   209 Coords:      5.000000      4.000000      3.000000, Make: null, ID: soot_50_40_30, Quantity: DENSITY, Species: SOOT
   210 Coords:      5.500000      4.000000      3.000000, Make: null, ID: soot_55_40_30, Quantity: DENSITY, Species: SOOT
   211 Coords:      6.000000      4.000000      3.000000, Make: null, ID: soot_60_40_30, Quantity: DENSITY, Species: SOOT
   212 Coords:      6.500000      4.000000      3.000000, Make: null, ID: soot_65_40_30, Quantity: DENSITY, Species: SOOT
   213 Coords:      7.000000      4.000000      3.000000, Make: null, ID: soot_70_40_30, Quantity: DENSITY, Species: SOOT
   214 Coords:      7.500000      4.000000      3.000000, Make: null, ID: soot_75_40_30, Quantity: DENSITY, Species: SOOT
   215 Coords:      8.000000      4.000000      3.000000, Make: null, ID: soot_80_40_30, Quantity: DENSITY, Species: SOOT
   216 Coords:      8.500000      4.000000      3.000000, Make: null, ID: soot_85_40_30, Quantity: DENSITY, Species: SOOT
   217 Coords:      4.500000      4.500000      0.500000, Make: null, ID: soot_45_45_05, Quantity: DENSITY, Species: SOOT
   218 Coords:      5.000000      4.500000      0.500000, Make: null, ID: soot_50_45_05, Quantity: DENSITY, Species: SOOT
   219 Coords:      5.500000      4.500000      0.500000, Make: null, ID: soot_55_45_05, Quantity: DENSITY, Species: SOOT
   220 Coords:      6.000000      4.500000      0.500000, Make: null, ID: soot_60_45_05, Quantity: DENSITY, Species: SOOT
   221 Coords:      6.500000      4.500000      0.500000, Make: null, ID: soot_65_45_05, Quantity: DENSITY, Species: SOOT
   222 Coords:      7.000000      4.500000      0.500000, Make: null, ID: soot_70_45_05, Quantity: DENSITY, Species: SOOT
   223 Coords:      7.500000      4.500000      0.500000, Make: null, ID: soot_75_45_05, Quantity: DENSITY, Species: SOOT
   224 Coords:      8.000000      4.500000      0.500000, Make: null, ID: soot_80_45_05, Quantity: DENSITY, Species: SOOT
   225 Coords:      8.500000      4.500000      0.500000, Make: null, ID: soot_85_45_05, Quantity: DENSITY, Species: SOOT
   226 Coords:      4.500000      4.500000      1.000000, Make: null, ID: soot_45_45_10, Quantity: DENSITY, Species: SOOT
   227 Coords:      5.000000      4.500000      1.000000, Make: null, ID: soot_50_45_10, Quantity: DENSITY, Species: SOOT
   228 Coords:      5.500000      4.500000      1.000000, Make: null, ID: soot_55_45_10, Quantity: DENSITY, Species: SOOT
   229 Coords:      6.000000      4.500000      1.000000, Make: null, ID: soot_60_45_10, Quantity: DENSITY, Species: SOOT
   230 Coords:      6.500000      4.500000      1.000000, Make: null, ID: soot_65_45_10, Quantity: DENSITY, Species: SOOT
   231 Coords:      7.000000      4.500000      1.000000, Make: null, ID: soot_70_45_10, Quantity: DENSITY, Species: SOOT
   232 Coords:      7.500000      4.500000      1.000000, Make: null, ID: soot_75_45_10, Quantity: DENSITY, Species: SOOT
   233 Coords:      8.000000      4.500000      1.000000, Make: null, ID: soot_80_45_10, Quantity: DENSITY, Species: SOOT
   234 Coords:      8.500000      4.500000      1.000000, Make: null, ID: soot_85_45_10, Quantity: DENSITY, Species: SOOT
   235 Coords:      4.500000      4.500000      1.500000, Make: null, ID: soot_45_45_15, Quantity: DENSITY, Species: SOOT
   236 Coords:      5.000000      4.500000      1.500000, Make: null, ID: soot_50_45_15, Quantity: DENSITY, Species: SOOT
   237 Coords:      5.500000      4.500000      1.500000, Make: null, ID: soot_55_45_15, Quantity: DENSITY, Species: SOOT
   238 Coords:      6.000000      4.500000      1.500000, Make: null, ID: soot_60_45_15, Quantity: DENSITY, Species: SOOT
   239 Coords:      6.500000      4.500000      1.500000, Make: null, ID: soot_65_45_15, Quantity: DENSITY, Species: SOOT
   240 Coords:      7.000000      4.500000      1.500000, Make: null, ID: soot_70_45_15, Quantity: DENSITY, Species: SOOT
   241 Coords:      7.500000      4.500000      1.500000, Make: null, ID: soot_75_45_15, Quantity: DENSITY, Species: SOOT
   242 Coords:      8.000000      4.500000      1.500000, Make: null, ID: soot_80_45_15, Quantity: DENSITY, Species: SOOT
   243 Coords:      8.500000      4.500000      1.500000, Make: null, ID: soot_85_45_15, Quantity: DENSITY, Species: SOOT
   244 Coords:      4.500000      4.500000      2.000000, Make: null, ID: soot_45_45_20, Quantity: DENSITY, Species: SOOT
   245 Coords:      5.000000      4.500000      2.000000, Make: null, ID: soot_50_45_20, Quantity: DENSITY, Species: SOOT
   246 Coords:      5.500000      4.500000      2.000000, Make: null, ID: soot_55_45_20, Quantity: DENSITY, Species: SOOT
   247 Coords:      6.000000      4.500000      2.000000, Make: null, ID: soot_60_45_20, Quantity: DENSITY, Species: SOOT
   248 Coords:      6.500000      4.500000      2.000000, Make: null, ID: soot_65_45_20, Quantity: DENSITY, Species: SOOT
   249 Coords:      7.000000      4.500000      2.000000, Make: null, ID: soot_70_45_20, Quantity: DENSITY, Species: SOOT
   250 Coords:      7.500000      4.500000      2.000000, Make: null, ID: soot_75_45_20, Quantity: DENSITY, Species: SOOT
   251 Coords:      8.000000      4.500000      2.000000, Make: null, ID: soot_80_45_20, Quantity: DENSITY, Species: SOOT
   252 Coords:      8.500000      4.500000      2.000000, Make: null, ID: soot_85_45_20, Quantity: DENSITY, Species: SOOT
   253 Coords:      4.500000      4.500000      2.500000, Make: null, ID: soot_45_45_25, Quantity: DENSITY, Species: SOOT
   254 Coords:      5.000000      4.500000      2.500000, Make: null, ID: soot_50_45_25, Quantity: DENSITY, Species: SOOT
   255 Coords:      5.500000      4.500000      2.500000, Make: null, ID: soot_55_45_25, Quantity: DENSITY, Species: SOOT
   256 Coords:      6.000000      4.500000      2.500000, Make: null, ID: soot_60_45_25, Quantity: DENSITY, Species: SOOT
   257 Coords:      6.500000      4.500000      2.500000, Make: null, ID: soot_65_45_25, Quantity: DENSITY, Species: SOOT
   258 Coords:      7.000000      4.500000      2.500000, Make: null, ID: soot_70_45_25, Quantity: DENSITY, Species: SOOT
   259 Coords:      7.500000      4.500000      2.500000, Make: null, ID: soot_75_45_25, Quantity: DENSITY, Species: SOOT
   260 Coords:      8.000000      4.500000      2.500000, Make: null, ID: soot_80_45_25, Quantity: DENSITY, Species: SOOT
   261 Coords:      8.500000      4.500000      2.500000, Make: null, ID: soot_85_45_25, Quantity: DENSITY, Species: SOOT
   262 Coords:      4.500000      4.500000      3.000000, Make: null, ID: soot_45_45_30, Quantity: DENSITY, Species: SOOT
   263 Coords:      5.000000      4.500000      3.000000, Make: null, ID: soot_50_45_30, Quantity: DENSITY, Species: SOOT
   264 Coords:      5.500000      4.500000      3.000000, Make: null, ID: soot_55_45_30, Quantity: DENSITY, Species: SOOT
   265 Coords:      6.000000      4.500000      3.000000, Make: null, ID: soot_60_45_30, Quantity: DENSITY, Species: SOOT
   266 Coords:      6.500000      4.500000      3.000000, Make: null, ID: soot_65_45_30, Quantity: DENSITY, Species: SOOT
   267 Coords:      7.000000      4.500000      3.000000, Make: null, ID: soot_70_45_30, Quantity: DENSITY, Species: SOOT
   268 Coords:      7.500000      4.500000      3.000000, Make: null, ID: soot_75_45_30, Quantity: DENSITY, Species: SOOT
   269 Coords:      8.000000      4.500000      3.000000, Make: null, ID: soot_80_45_30, Quantity: DENSITY, Species: SOOT
   270 Coords:      8.500000      4.500000      3.000000, Make: null, ID: soot_85_45_30, Quantity: DENSITY, Species: SOOT
   271 Coords:      4.500000      5.000000      0.500000, Make: null, ID: soot_45_50_05, Quantity: DENSITY, Species: SOOT
   272 Coords:      5.000000      5.000000      0.500000, Make: null, ID: soot_50_50_05, Quantity: DENSITY, Species: SOOT
   273 Coords:      5.500000      5.000000      0.500000, Make: null, ID: soot_55_50_05, Quantity: DENSITY, Species: SOOT
   274 Coords:      6.000000      5.000000      0.500000, Make: null, ID: soot_60_50_05, Quantity: DENSITY, Species: SOOT
   275 Coords:      6.500000      5.000000      0.500000, Make: null, ID: soot_65_50_05, Quantity: DENSITY, Species: SOOT
   276 Coords:      7.000000      5.000000      0.500000, Make: null, ID: soot_70_50_05, Quantity: DENSITY, Species: SOOT
   277 Coords:      7.500000      5.000000      0.500000, Make: null, ID: soot_75_50_05, Quantity: DENSITY, Species: SOOT
   278 Coords:      8.000000      5.000000      0.500000, Make: null, ID: soot_80_50_05, Quantity: DENSITY, Species: SOOT
   279 Coords:      8.500000      5.000000      0.500000, Make: null, ID: soot_85_50_05, Quantity: DENSITY, Species: SOOT
   280 Coords:      4.500000      5.000000      1.000000, Make: null, ID: soot_45_50_10, Quantity: DENSITY, Species: SOOT
   281 Coords:      5.000000      5.000000      1.000000, Make: null, ID: soot_50_50_10, Quantity: DENSITY, Species: SOOT
   282 Coords:      5.500000      5.000000      1.000000, Make: null, ID: soot_55_50_10, Quantity: DENSITY, Species: SOOT
   283 Coords:      6.000000      5.000000      1.000000, Make: null, ID: soot_60_50_10, Quantity: DENSITY, Species: SOOT
   284 Coords:      6.500000      5.000000      1.000000, Make: null, ID: soot_65_50_10, Quantity: DENSITY, Species: SOOT
   285 Coords:      7.000000      5.000000      1.000000, Make: null, ID: soot_70_50_10, Quantity: DENSITY, Species: SOOT
   286 Coords:      7.500000      5.000000      1.000000, Make: null, ID: soot_75_50_10, Quantity: DENSITY, Species: SOOT
   287 Coords:      8.000000      5.000000      1.000000, Make: null, ID: soot_80_50_10, Quantity: DENSITY, Species: SOOT
   288 Coords:      8.500000      5.000000      1.000000, Make: null, ID: soot_85_50_10, Quantity: DENSITY, Species: SOOT
   289 Coords:      4.500000      5.000000      1.500000, Make: null, ID: soot_45_50_15, Quantity: DENSITY, Species: SOOT
   290 Coords:      5.000000      5.000000      1.500000, Make: null, ID: soot_50_50_15, Quantity: DENSITY, Species: SOOT
   291 Coords:      5.500000      5.000000      1.500000, Make: null, ID: soot_55_50_15, Quantity: DENSITY, Species: SOOT
   292 Coords:      6.000000      5.000000      1.500000, Make: null, ID: soot_60_50_15, Quantity: DENSITY, Species: SOOT
   293 Coords:      6.500000      5.000000      1.500000, Make: null, ID: soot_65_50_15, Quantity: DENSITY, Species: SOOT
   294 Coords:      7.000000      5.000000      1.500000, Make: null, ID: soot_70_50_15, Quantity: DENSITY, Species: SOOT
   295 Coords:      7.500000      5.000000      1.500000, Make: null, ID: soot_75_50_15, Quantity: DENSITY, Species: SOOT
   296 Coords:      8.000000      5.000000      1.500000, Make: null, ID: soot_80_50_15, Quantity: DENSITY, Species: SOOT
   297 Coords:      8.500000      5.000000      1.500000, Make: null, ID: soot_85_50_15, Quantity: DENSITY, Species: SOOT
   298 Coords:      4.500000      5.000000      2.000000, Make: null, ID: soot_45_50_20, Quantity: DENSITY, Species: SOOT
   299 Coords:      5.000000      5.000000      2.000000, Make: null, ID: soot_50_50_20, Quantity: DENSITY, Species: SOOT
   300 Coords:      5.500000      5.000000      2.000000, Make: null, ID: soot_55_50_20, Quantity: DENSITY, Species: SOOT
   301 Coords:      6.000000      5.000000      2.000000, Make: null, ID: soot_60_50_20, Quantity: DENSITY, Species: SOOT
   302 Coords:      6.500000      5.000000      2.000000, Make: null, ID: soot_65_50_20, Quantity: DENSITY, Species: SOOT
   303 Coords:      7.000000      5.000000      2.000000, Make: null, ID: soot_70_50_20, Quantity: DENSITY, Species: SOOT
   304 Coords:      7.500000      5.000000      2.000000, Make: null, ID: soot_75_50_20, Quantity: DENSITY, Species: SOOT
   305 Coords:      8.000000      5.000000      2.000000, Make: null, ID: soot_80_50_20, Quantity: DENSITY, Species: SOOT
   306 Coords:      8.500000      5.000000      2.000000, Make: null, ID: soot_85_50_20, Quantity: DENSITY, Species: SOOT
   307 Coords:      4.500000      5.000000      2.500000, Make: null, ID: soot_45_50_25, Quantity: DENSITY, Species: SOOT
   308 Coords:      5.000000      5.000000      2.500000, Make: null, ID: soot_50_50_25, Quantity: DENSITY, Species: SOOT
   309 Coords:      5.500000      5.000000      2.500000, Make: null, ID: soot_55_50_25, Quantity: DENSITY, Species: SOOT
   310 Coords:      6.000000      5.000000      2.500000, Make: null, ID: soot_60_50_25, Quantity: DENSITY, Species: SOOT
   311 Coords:      6.500000      5.000000      2.500000, Make: null, ID: soot_65_50_25, Quantity: DENSITY, Species: SOOT
   312 Coords:      7.000000      5.000000      2.500000, Make: null, ID: soot_70_50_25, Quantity: DENSITY, Species: SOOT
   313 Coords:      7.500000      5.000000      2.500000, Make: null, ID: soot_75_50_25, Quantity: DENSITY, Species: SOOT
   314 Coords:      8.000000      5.000000      2.500000, Make: null, ID: soot_80_50_25, Quantity: DENSITY, Species: SOOT
   315 Coords:      8.500000      5.000000      2.500000, Make: null, ID: soot_85_50_25, Quantity: DENSITY, Species: SOOT
   316 Coords:      4.500000      5.000000      3.000000, Make: null, ID: soot_45_50_30, Quantity: DENSITY, Species: SOOT
   317 Coords:      5.000000      5.000000      3.000000, Make: null, ID: soot_50_50_30, Quantity: DENSITY, Species: SOOT
   318 Coords:      5.500000      5.000000      3.000000, Make: null, ID: soot_55_50_30, Quantity: DENSITY, Species: SOOT
   319 Coords:      6.000000      5.000000      3.000000, Make: null, ID: soot_60_50_30, Quantity: DENSITY, Species: SOOT
   320 Coords:      6.500000      5.000000      3.000000, Make: null, ID: soot_65_50_30, Quantity: DENSITY, Species: SOOT
   321 Coords:      7.000000      5.000000      3.000000, Make: null, ID: soot_70_50_30, Quantity: DENSITY, Species: SOOT
   322 Coords:      7.500000      5.000000      3.000000, Make: null, ID: soot_75_50_30, Quantity: DENSITY, Species: SOOT
   323 Coords:      8.000000      5.000000      3.000000, Make: null, ID: soot_80_50_30, Quantity: DENSITY, Species: SOOT
   324 Coords:      8.500000      5.000000      3.000000, Make: null, ID: soot_85_50_30, Quantity: DENSITY, Species: SOOT
   325 Coords:      4.500000      5.500000      0.500000, Make: null, ID: soot_45_55_05, Quantity: DENSITY, Species: SOOT
   326 Coords:      5.000000      5.500000      0.500000, Make: null, ID: soot_50_55_05, Quantity: DENSITY, Species: SOOT
   327 Coords:      5.500000      5.500000      0.500000, Make: null, ID: soot_55_55_05, Quantity: DENSITY, Species: SOOT
   328 Coords:      6.000000      5.500000      0.500000, Make: null, ID: soot_60_55_05, Quantity: DENSITY, Species: SOOT
   329 Coords:      6.500000      5.500000      0.500000, Make: null, ID: soot_65_55_05, Quantity: DENSITY, Species: SOOT
   330 Coords:      7.000000      5.500000      0.500000, Make: null, ID: soot_70_55_05, Quantity: DENSITY, Species: SOOT
   331 Coords:      7.500000      5.500000      0.500000, Make: null, ID: soot_75_55_05, Quantity: DENSITY, Species: SOOT
   332 Coords:      8.000000      5.500000      0.500000, Make: null, ID: soot_80_55_05, Quantity: DENSITY, Species: SOOT
   333 Coords:      8.500000      5.500000      0.500000, Make: null, ID: soot_85_55_05, Quantity: DENSITY, Species: SOOT
   334 Coords:      4.500000      5.500000      1.000000, Make: null, ID: soot_45_55_10, Quantity: DENSITY, Species: SOOT
   335 Coords:      5.000000      5.500000      1.000000, Make: null, ID: soot_50_55_10, Quantity: DENSITY, Species: SOOT
   336 Coords:      5.500000      5.500000      1.000000, Make: null, ID: soot_55_55_10, Quantity: DENSITY, Species: SOOT
   337 Coords:      6.000000      5.500000      1.000000, Make: null, ID: soot_60_55_10, Quantity: DENSITY, Species: SOOT
   338 Coords:      6.500000      5.500000      1.000000, Make: null, ID: soot_65_55_10, Quantity: DENSITY, Species: SOOT
   339 Coords:      7.000000      5.500000      1.000000, Make: null, ID: soot_70_55_10, Quantity: DENSITY, Species: SOOT
   340 Coords:      7.500000      5.500000      1.000000, Make: null, ID: soot_75_55_10, Quantity: DENSITY, Species: SOOT
   341 Coords:      8.000000      5.500000      1.000000, Make: null, ID: soot_80_55_10, Quantity: DENSITY, Species: SOOT
   342 Coords:      8.500000      5.500000      1.000000, Make: null, ID: soot_85_55_10, Quantity: DENSITY, Species: SOOT
   343 Coords:      4.500000      5.500000      1.500000, Make: null, ID: soot_45_55_15, Quantity: DENSITY, Species: SOOT
   344 Coords:      5.000000      5.500000      1.500000, Make: null, ID: soot_50_55_15, Quantity: DENSITY, Species: SOOT
   345 Coords:      5.500000      5.500000      1.500000, Make: null, ID: soot_55_55_15, Quantity: DENSITY, Species: SOOT
   346 Coords:      6.000000      5.500000      1.500000, Make: null, ID: soot_60_55_15, Quantity: DENSITY, Species: SOOT
   347 Coords:      6.500000      5.500000      1.500000, Make: null, ID: soot_65_55_15, Quantity: DENSITY, Species: SOOT
   348 Coords:      7.000000      5.500000      1.500000, Make: null, ID: soot_70_55_15, Quantity: DENSITY, Species: SOOT
   349 Coords:      7.500000      5.500000      1.500000, Make: null, ID: soot_75_55_15, Quantity: DENSITY, Species: SOOT
   350 Coords:      8.000000      5.500000      1.500000, Make: null, ID: soot_80_55_15, Quantity: DENSITY, Species: SOOT
   351 Coords:      8.500000      5.500000      1.500000, Make: null, ID: soot_85_55_15, Quantity: DENSITY, Species: SOOT
   352 Coords:      4.500000      5.500000      2.000000, Make: null, ID: soot_45_55_20, Quantity: DENSITY, Species: SOOT
   353 Coords:      5.000000      5.500000      2.000000, Make: null, ID: soot_50_55_20, Quantity: DENSITY, Species: SOOT
   354 Coords:      5.500000      5.500000      2.000000, Make: null, ID: soot_55_55_20, Quantity: DENSITY, Species: SOOT
   355 Coords:      6.000000      5.500000      2.000000, Make: null, ID: soot_60_55_20, Quantity: DENSITY, Species: SOOT
   356 Coords:      6.500000      5.500000      2.000000, Make: null, ID: soot_65_55_20, Quantity: DENSITY, Species: SOOT
   357 Coords:      7.000000      5.500000      2.000000, Make: null, ID: soot_70_55_20, Quantity: DENSITY, Species: SOOT
   358 Coords:      7.500000      5.500000      2.000000, Make: null, ID: soot_75_55_20, Quantity: DENSITY, Species: SOOT
   359 Coords:      8.000000      5.500000      2.000000, Make: null, ID: soot_80_55_20, Quantity: DENSITY, Species: SOOT
   360 Coords:      8.500000      5.500000      2.000000, Make: null, ID: soot_85_55_20, Quantity: DENSITY, Species: SOOT
   361 Coords:      4.500000      5.500000      2.500000, Make: null, ID: soot_45_55_25, Quantity: DENSITY, Species: SOOT
   362 Coords:      5.000000      5.500000      2.500000, Make: null, ID: soot_50_55_25, Quantity: DENSITY, Species: SOOT
   363 Coords:      5.500000      5.500000      2.500000, Make: null, ID: soot_55_55_25, Quantity: DENSITY, Species: SOOT
   364 Coords:      6.000000      5.500000      2.500000, Make: null, ID: soot_60_55_25, Quantity: DENSITY, Species: SOOT
   365 Coords:      6.500000      5.500000      2.500000, Make: null, ID: soot_65_55_25, Quantity: DENSITY, Species: SOOT
   366 Coords:      7.000000      5.500000      2.500000, Make: null, ID: soot_70_55_25, Quantity: DENSITY, Species: SOOT
   367 Coords:      7.500000      5.500000      2.500000, Make: null, ID: soot_75_55_25, Quantity: DENSITY, Species: SOOT
   368 Coords:      8.000000      5.500000      2.500000, Make: null, ID: soot_80_55_25, Quantity: DENSITY, Species: SOOT
   369 Coords:      8.500000      5.500000      2.500000, Make: null, ID: soot_85_55_25, Quantity: DENSITY, Species: SOOT
   370 Coords:      4.500000      5.500000      3.000000, Make: null, ID: soot_45_55_30, Quantity: DENSITY, Species: SOOT
   371 Coords:      5.000000      5.500000      3.000000, Make: null, ID: soot_50_55_30, Quantity: DENSITY, Species: SOOT
   372 Coords:      5.500000      5.500000      3.000000, Make: null, ID: soot_55_55_30, Quantity: DENSITY, Species: SOOT
   373 Coords:      6.000000      5.500000      3.000000, Make: null, ID: soot_60_55_30, Quantity: DENSITY, Species: SOOT
   374 Coords:      6.500000      5.500000      3.000000, Make: null, ID: soot_65_55_30, Quantity: DENSITY, Species: SOOT
   375 Coords:      7.000000      5.500000      3.000000, Make: null, ID: soot_70_55_30, Quantity: DENSITY, Species: SOOT
   376 Coords:      7.500000      5.500000      3.000000, Make: null, ID: soot_75_55_30, Quantity: DENSITY, Species: SOOT
   377 Coords:      8.000000      5.500000      3.000000, Make: null, ID: soot_80_55_30, Quantity: DENSITY, Species: SOOT
   378 Coords:      8.500000      5.500000      3.000000, Make: null, ID: soot_85_55_30, Quantity: DENSITY, Species: SOOT
   379 Coords:      4.500000      6.000000      0.500000, Make: null, ID: soot_45_60_05, Quantity: DENSITY, Species: SOOT
   380 Coords:      5.000000      6.000000      0.500000, Make: null, ID: soot_50_60_05, Quantity: DENSITY, Species: SOOT
   381 Coords:      5.500000      6.000000      0.500000, Make: null, ID: soot_55_60_05, Quantity: DENSITY, Species: SOOT
   382 Coords:      6.000000      6.000000      0.500000, Make: null, ID: soot_60_60_05, Quantity: DENSITY, Species: SOOT
   383 Coords:      6.500000      6.000000      0.500000, Make: null, ID: soot_65_60_05, Quantity: DENSITY, Species: SOOT
   384 Coords:      7.000000      6.000000      0.500000, Make: null, ID: soot_70_60_05, Quantity: DENSITY, Species: SOOT
   385 Coords:      7.500000      6.000000      0.500000, Make: null, ID: soot_75_60_05, Quantity: DENSITY, Species: SOOT
   386 Coords:      8.000000      6.000000      0.500000, Make: null, ID: soot_80_60_05, Quantity: DENSITY, Species: SOOT
   387 Coords:      8.500000      6.000000      0.500000, Make: null, ID: soot_85_60_05, Quantity: DENSITY, Species: SOOT
   388 Coords:      4.500000      6.000000      1.000000, Make: null, ID: soot_45_60_10, Quantity: DENSITY, Species: SOOT
   389 Coords:      5.000000      6.000000      1.000000, Make: null, ID: soot_50_60_10, Quantity: DENSITY, Species: SOOT
   390 Coords:      5.500000      6.000000      1.000000, Make: null, ID: soot_55_60_10, Quantity: DENSITY, Species: SOOT
   391 Coords:      6.000000      6.000000      1.000000, Make: null, ID: soot_60_60_10, Quantity: DENSITY, Species: SOOT
   392 Coords:      6.500000      6.000000      1.000000, Make: null, ID: soot_65_60_10, Quantity: DENSITY, Species: SOOT
   393 Coords:      7.000000      6.000000      1.000000, Make: null, ID: soot_70_60_10, Quantity: DENSITY, Species: SOOT
   394 Coords:      7.500000      6.000000      1.000000, Make: null, ID: soot_75_60_10, Quantity: DENSITY, Species: SOOT
   395 Coords:      8.000000      6.000000      1.000000, Make: null, ID: soot_80_60_10, Quantity: DENSITY, Species: SOOT
   396 Coords:      8.500000      6.000000      1.000000, Make: null, ID: soot_85_60_10, Quantity: DENSITY, Species: SOOT
   397 Coords:      4.500000      6.000000      1.500000, Make: null, ID: soot_45_60_15, Quantity: DENSITY, Species: SOOT
   398 Coords:      5.000000      6.000000      1.500000, Make: null, ID: soot_50_60_15, Quantity: DENSITY, Species: SOOT
   399 Coords:      5.500000      6.000000      1.500000, Make: null, ID: soot_55_60_15, Quantity: DENSITY, Species: SOOT
   400 Coords:      6.000000      6.000000      1.500000, Make: null, ID: soot_60_60_15, Quantity: DENSITY, Species: SOOT
   401 Coords:      6.500000      6.000000      1.500000, Make: null, ID: soot_65_60_15, Quantity: DENSITY, Species: SOOT
   402 Coords:      7.000000      6.000000      1.500000, Make: null, ID: soot_70_60_15, Quantity: DENSITY, Species: SOOT
   403 Coords:      7.500000      6.000000      1.500000, Make: null, ID: soot_75_60_15, Quantity: DENSITY, Species: SOOT
   404 Coords:      8.000000      6.000000      1.500000, Make: null, ID: soot_80_60_15, Quantity: DENSITY, Species: SOOT
   405 Coords:      8.500000      6.000000      1.500000, Make: null, ID: soot_85_60_15, Quantity: DENSITY, Species: SOOT
   406 Coords:      4.500000      6.000000      2.000000, Make: null, ID: soot_45_60_20, Quantity: DENSITY, Species: SOOT
   407 Coords:      5.000000      6.000000      2.000000, Make: null, ID: soot_50_60_20, Quantity: DENSITY, Species: SOOT
   408 Coords:      5.500000      6.000000      2.000000, Make: null, ID: soot_55_60_20, Quantity: DENSITY, Species: SOOT
   409 Coords:      6.000000      6.000000      2.000000, Make: null, ID: soot_60_60_20, Quantity: DENSITY, Species: SOOT
   410 Coords:      6.500000      6.000000      2.000000, Make: null, ID: soot_65_60_20, Quantity: DENSITY, Species: SOOT
   411 Coords:      7.000000      6.000000      2.000000, Make: null, ID: soot_70_60_20, Quantity: DENSITY, Species: SOOT
   412 Coords:      7.500000      6.000000      2.000000, Make: null, ID: soot_75_60_20, Quantity: DENSITY, Species: SOOT
   413 Coords:      8.000000      6.000000      2.000000, Make: null, ID: soot_80_60_20, Quantity: DENSITY, Species: SOOT
   414 Coords:      8.500000      6.000000      2.000000, Make: null, ID: soot_85_60_20, Quantity: DENSITY, Species: SOOT
   415 Coords:      4.500000      6.000000      2.500000, Make: null, ID: soot_45_60_25, Quantity: DENSITY, Species: SOOT
   416 Coords:      5.000000      6.000000      2.500000, Make: null, ID: soot_50_60_25, Quantity: DENSITY, Species: SOOT
   417 Coords:      5.500000      6.000000      2.500000, Make: null, ID: soot_55_60_25, Quantity: DENSITY, Species: SOOT
   418 Coords:      6.000000      6.000000      2.500000, Make: null, ID: soot_60_60_25, Quantity: DENSITY, Species: SOOT
   419 Coords:      6.500000      6.000000      2.500000, Make: null, ID: soot_65_60_25, Quantity: DENSITY, Species: SOOT
   420 Coords:      7.000000      6.000000      2.500000, Make: null, ID: soot_70_60_25, Quantity: DENSITY, Species: SOOT
   421 Coords:      7.500000      6.000000      2.500000, Make: null, ID: soot_75_60_25, Quantity: DENSITY, Species: SOOT
   422 Coords:      8.000000      6.000000      2.500000, Make: null, ID: soot_80_60_25, Quantity: DENSITY, Species: SOOT
   423 Coords:      8.500000      6.000000      2.500000, Make: null, ID: soot_85_60_25, Quantity: DENSITY, Species: SOOT
   424 Coords:      4.500000      6.000000      3.000000, Make: null, ID: soot_45_60_30, Quantity: DENSITY, Species: SOOT
   425 Coords:      5.000000      6.000000      3.000000, Make: null, ID: soot_50_60_30, Quantity: DENSITY, Species: SOOT
   426 Coords:      5.500000      6.000000      3.000000, Make: null, ID: soot_55_60_30, Quantity: DENSITY, Species: SOOT
   427 Coords:      6.000000      6.000000      3.000000, Make: null, ID: soot_60_60_30, Quantity: DENSITY, Species: SOOT
   428 Coords:      6.500000      6.000000      3.000000, Make: null, ID: soot_65_60_30, Quantity: DENSITY, Species: SOOT
   429 Coords:      7.000000      6.000000      3.000000, Make: null, ID: soot_70_60_30, Quantity: DENSITY, Species: SOOT
   430 Coords:      7.500000      6.000000      3.000000, Make: null, ID: soot_75_60_30, Quantity: DENSITY, Species: SOOT
   431 Coords:      8.000000      6.000000      3.000000, Make: null, ID: soot_80_60_30, Quantity: DENSITY, Species: SOOT
   432 Coords:      8.500000      6.000000      3.000000, Make: null, ID: soot_85_60_30, Quantity: DENSITY, Species: SOOT
   433 Coords:      4.500000      6.500000      0.500000, Make: null, ID: soot_45_65_05, Quantity: DENSITY, Species: SOOT
   434 Coords:      5.000000      6.500000      0.500000, Make: null, ID: soot_50_65_05, Quantity: DENSITY, Species: SOOT
   435 Coords:      5.500000      6.500000      0.500000, Make: null, ID: soot_55_65_05, Quantity: DENSITY, Species: SOOT
   436 Coords:      6.000000      6.500000      0.500000, Make: null, ID: soot_60_65_05, Quantity: DENSITY, Species: SOOT
   437 Coords:      6.500000      6.500000      0.500000, Make: null, ID: soot_65_65_05, Quantity: DENSITY, Species: SOOT
   438 Coords:      7.000000      6.500000      0.500000, Make: null, ID: soot_70_65_05, Quantity: DENSITY, Species: SOOT
   439 Coords:      7.500000      6.500000      0.500000, Make: null, ID: soot_75_65_05, Quantity: DENSITY, Species: SOOT
   440 Coords:      8.000000      6.500000      0.500000, Make: null, ID: soot_80_65_05, Quantity: DENSITY, Species: SOOT
   441 Coords:      8.500000      6.500000      0.500000, Make: null, ID: soot_85_65_05, Quantity: DENSITY, Species: SOOT
   442 Coords:      4.500000      6.500000      1.000000, Make: null, ID: soot_45_65_10, Quantity: DENSITY, Species: SOOT
   443 Coords:      5.000000      6.500000      1.000000, Make: null, ID: soot_50_65_10, Quantity: DENSITY, Species: SOOT
   444 Coords:      5.500000      6.500000      1.000000, Make: null, ID: soot_55_65_10, Quantity: DENSITY, Species: SOOT
   445 Coords:      6.000000      6.500000      1.000000, Make: null, ID: soot_60_65_10, Quantity: DENSITY, Species: SOOT
   446 Coords:      6.500000      6.500000      1.000000, Make: null, ID: soot_65_65_10, Quantity: DENSITY, Species: SOOT
   447 Coords:      7.000000      6.500000      1.000000, Make: null, ID: soot_70_65_10, Quantity: DENSITY, Species: SOOT
   448 Coords:      7.500000      6.500000      1.000000, Make: null, ID: soot_75_65_10, Quantity: DENSITY, Species: SOOT
   449 Coords:      8.000000      6.500000      1.000000, Make: null, ID: soot_80_65_10, Quantity: DENSITY, Species: SOOT
   450 Coords:      8.500000      6.500000      1.000000, Make: null, ID: soot_85_65_10, Quantity: DENSITY, Species: SOOT
   451 Coords:      4.500000      6.500000      1.500000, Make: null, ID: soot_45_65_15, Quantity: DENSITY, Species: SOOT
   452 Coords:      5.000000      6.500000      1.500000, Make: null, ID: soot_50_65_15, Quantity: DENSITY, Species: SOOT
   453 Coords:      5.500000      6.500000      1.500000, Make: null, ID: soot_55_65_15, Quantity: DENSITY, Species: SOOT
   454 Coords:      6.000000      6.500000      1.500000, Make: null, ID: soot_60_65_15, Quantity: DENSITY, Species: SOOT
   455 Coords:      6.500000      6.500000      1.500000, Make: null, ID: soot_65_65_15, Quantity: DENSITY, Species: SOOT
   456 Coords:      7.000000      6.500000      1.500000, Make: null, ID: soot_70_65_15, Quantity: DENSITY, Species: SOOT
   457 Coords:      7.500000      6.500000      1.500000, Make: null, ID: soot_75_65_15, Quantity: DENSITY, Species: SOOT
   458 Coords:      8.000000      6.500000      1.500000, Make: null, ID: soot_80_65_15, Quantity: DENSITY, Species: SOOT
   459 Coords:      8.500000      6.500000      1.500000, Make: null, ID: soot_85_65_15, Quantity: DENSITY, Species: SOOT
   460 Coords:      4.500000      6.500000      2.000000, Make: null, ID: soot_45_65_20, Quantity: DENSITY, Species: SOOT
   461 Coords:      5.000000      6.500000      2.000000, Make: null, ID: soot_50_65_20, Quantity: DENSITY, Species: SOOT
   462 Coords:      5.500000      6.500000      2.000000, Make: null, ID: soot_55_65_20, Quantity: DENSITY, Species: SOOT
   463 Coords:      6.000000      6.500000      2.000000, Make: null, ID: soot_60_65_20, Quantity: DENSITY, Species: SOOT
   464 Coords:      6.500000      6.500000      2.000000, Make: null, ID: soot_65_65_20, Quantity: DENSITY, Species: SOOT
   465 Coords:      7.000000      6.500000      2.000000, Make: null, ID: soot_70_65_20, Quantity: DENSITY, Species: SOOT
   466 Coords:      7.500000      6.500000      2.000000, Make: null, ID: soot_75_65_20, Quantity: DENSITY, Species: SOOT
   467 Coords:      8.000000      6.500000      2.000000, Make: null, ID: soot_80_65_20, Quantity: DENSITY, Species: SOOT
   468 Coords:      8.500000      6.500000      2.000000, Make: null, ID: soot_85_65_20, Quantity: DENSITY, Species: SOOT
   469 Coords:      4.500000      6.500000      2.500000, Make: null, ID: soot_45_65_25, Quantity: DENSITY, Species: SOOT
   470 Coords:      5.000000      6.500000      2.500000, Make: null, ID: soot_50_65_25, Quantity: DENSITY, Species: SOOT
   471 Coords:      5.500000      6.500000      2.500000, Make: null, ID: soot_55_65_25, Quantity: DENSITY, Species: SOOT
   472 Coords:      6.000000      6.500000      2.500000, Make: null, ID: soot_60_65_25, Quantity: DENSITY, Species: SOOT
   473 Coords:      6.500000      6.500000      2.500000, Make: null, ID: soot_65_65_25, Quantity: DENSITY, Species: SOOT
   474 Coords:      7.000000      6.500000      2.500000, Make: null, ID: soot_70_65_25, Quantity: DENSITY, Species: SOOT
   475 Coords:      7.500000      6.500000      2.500000, Make: null, ID: soot_75_65_25, Quantity: DENSITY, Species: SOOT
   476 Coords:      8.000000      6.500000      2.500000, Make: null, ID: soot_80_65_25, Quantity: DENSITY, Species: SOOT
   477 Coords:      8.500000      6.500000      2.500000, Make: null, ID: soot_85_65_25, Quantity: DENSITY, Species: SOOT
   478 Coords:      4.500000      6.500000      3.000000, Make: null, ID: soot_45_65_30, Quantity: DENSITY, Species: SOOT
   479 Coords:      5.000000      6.500000      3.000000, Make: null, ID: soot_50_65_30, Quantity: DENSITY, Species: SOOT
   480 Coords:      5.500000      6.500000      3.000000, Make: null, ID: soot_55_65_30, Quantity: DENSITY, Species: SOOT
   481 Coords:      6.000000      6.500000      3.000000, Make: null, ID: soot_60_65_30, Quantity: DENSITY, Species: SOOT
   482 Coords:      6.500000      6.500000      3.000000, Make: null, ID: soot_65_65_30, Quantity: DENSITY, Species: SOOT
   483 Coords:      7.000000      6.500000      3.000000, Make: null, ID: soot_70_65_30, Quantity: DENSITY, Species: SOOT
   484 Coords:      7.500000      6.500000      3.000000, Make: null, ID: soot_75_65_30, Quantity: DENSITY, Species: SOOT
   485 Coords:      8.000000      6.500000      3.000000, Make: null, ID: soot_80_65_30, Quantity: DENSITY, Species: SOOT
   486 Coords:      8.500000      6.500000      3.000000, Make: null, ID: soot_85_65_30, Quantity: DENSITY, Species: SOOT
   487 Coords:      4.500000      7.000000      0.500000, Make: null, ID: soot_45_70_05, Quantity: DENSITY, Species: SOOT
   488 Coords:      5.000000      7.000000      0.500000, Make: null, ID: soot_50_70_05, Quantity: DENSITY, Species: SOOT
   489 Coords:      5.500000      7.000000      0.500000, Make: null, ID: soot_55_70_05, Quantity: DENSITY, Species: SOOT
   490 Coords:      6.000000      7.000000      0.500000, Make: null, ID: soot_60_70_05, Quantity: DENSITY, Species: SOOT
   491 Coords:      6.500000      7.000000      0.500000, Make: null, ID: soot_65_70_05, Quantity: DENSITY, Species: SOOT
   492 Coords:      7.000000      7.000000      0.500000, Make: null, ID: soot_70_70_05, Quantity: DENSITY, Species: SOOT
   493 Coords:      7.500000      7.000000      0.500000, Make: null, ID: soot_75_70_05, Quantity: DENSITY, Species: SOOT
   494 Coords:      8.000000      7.000000      0.500000, Make: null, ID: soot_80_70_05, Quantity: DENSITY, Species: SOOT
   495 Coords:      8.500000      7.000000      0.500000, Make: null, ID: soot_85_70_05, Quantity: DENSITY, Species: SOOT
   496 Coords:      4.500000      7.000000      1.000000, Make: null, ID: soot_45_70_10, Quantity: DENSITY, Species: SOOT
   497 Coords:      5.000000      7.000000      1.000000, Make: null, ID: soot_50_70_10, Quantity: DENSITY, Species: SOOT
   498 Coords:      5.500000      7.000000      1.000000, Make: null, ID: soot_55_70_10, Quantity: DENSITY, Species: SOOT
   499 Coords:      6.000000      7.000000      1.000000, Make: null, ID: soot_60_70_10, Quantity: DENSITY, Species: SOOT
   500 Coords:      6.500000      7.000000      1.000000, Make: null, ID: soot_65_70_10, Quantity: DENSITY, Species: SOOT
   501 Coords:      7.000000      7.000000      1.000000, Make: null, ID: soot_70_70_10, Quantity: DENSITY, Species: SOOT
   502 Coords:      7.500000      7.000000      1.000000, Make: null, ID: soot_75_70_10, Quantity: DENSITY, Species: SOOT
   503 Coords:      8.000000      7.000000      1.000000, Make: null, ID: soot_80_70_10, Quantity: DENSITY, Species: SOOT
   504 Coords:      8.500000      7.000000      1.000000, Make: null, ID: soot_85_70_10, Quantity: DENSITY, Species: SOOT
   505 Coords:      4.500000      7.000000      1.500000, Make: null, ID: soot_45_70_15, Quantity: DENSITY, Species: SOOT
   506 Coords:      5.000000      7.000000      1.500000, Make: null, ID: soot_50_70_15, Quantity: DENSITY, Species: SOOT
   507 Coords:      5.500000      7.000000      1.500000, Make: null, ID: soot_55_70_15, Quantity: DENSITY, Species: SOOT
   508 Coords:      6.000000      7.000000      1.500000, Make: null, ID: soot_60_70_15, Quantity: DENSITY, Species: SOOT
   509 Coords:      6.500000      7.000000      1.500000, Make: null, ID: soot_65_70_15, Quantity: DENSITY, Species: SOOT
   510 Coords:      7.000000      7.000000      1.500000, Make: null, ID: soot_70_70_15, Quantity: DENSITY, Species: SOOT
   511 Coords:      7.500000      7.000000      1.500000, Make: null, ID: soot_75_70_15, Quantity: DENSITY, Species: SOOT
   512 Coords:      8.000000      7.000000      1.500000, Make: null, ID: soot_80_70_15, Quantity: DENSITY, Species: SOOT
   513 Coords:      8.500000      7.000000      1.500000, Make: null, ID: soot_85_70_15, Quantity: DENSITY, Species: SOOT
   514 Coords:      4.500000      7.000000      2.000000, Make: null, ID: soot_45_70_20, Quantity: DENSITY, Species: SOOT
   515 Coords:      5.000000      7.000000      2.000000, Make: null, ID: soot_50_70_20, Quantity: DENSITY, Species: SOOT
   516 Coords:      5.500000      7.000000      2.000000, Make: null, ID: soot_55_70_20, Quantity: DENSITY, Species: SOOT
   517 Coords:      6.000000      7.000000      2.000000, Make: null, ID: soot_60_70_20, Quantity: DENSITY, Species: SOOT
   518 Coords:      6.500000      7.000000      2.000000, Make: null, ID: soot_65_70_20, Quantity: DENSITY, Species: SOOT
   519 Coords:      7.000000      7.000000      2.000000, Make: null, ID: soot_70_70_20, Quantity: DENSITY, Species: SOOT
   520 Coords:      7.500000      7.000000      2.000000, Make: null, ID: soot_75_70_20, Quantity: DENSITY, Species: SOOT
   521 Coords:      8.000000      7.000000      2.000000, Make: null, ID: soot_80_70_20, Quantity: DENSITY, Species: SOOT
   522 Coords:      8.500000      7.000000      2.000000, Make: null, ID: soot_85_70_20, Quantity: DENSITY, Species: SOOT
   523 Coords:      4.500000      7.000000      2.500000, Make: null, ID: soot_45_70_25, Quantity: DENSITY, Species: SOOT
   524 Coords:      5.000000      7.000000      2.500000, Make: null, ID: soot_50_70_25, Quantity: DENSITY, Species: SOOT
   525 Coords:      5.500000      7.000000      2.500000, Make: null, ID: soot_55_70_25, Quantity: DENSITY, Species: SOOT
   526 Coords:      6.000000      7.000000      2.500000, Make: null, ID: soot_60_70_25, Quantity: DENSITY, Species: SOOT
   527 Coords:      6.500000      7.000000      2.500000, Make: null, ID: soot_65_70_25, Quantity: DENSITY, Species: SOOT
   528 Coords:      7.000000      7.000000      2.500000, Make: null, ID: soot_70_70_25, Quantity: DENSITY, Species: SOOT
   529 Coords:      7.500000      7.000000      2.500000, Make: null, ID: soot_75_70_25, Quantity: DENSITY, Species: SOOT
   530 Coords:      8.000000      7.000000      2.500000, Make: null, ID: soot_80_70_25, Quantity: DENSITY, Species: SOOT
   531 Coords:      8.500000      7.000000      2.500000, Make: null, ID: soot_85_70_25, Quantity: DENSITY, Species: SOOT
   532 Coords:      4.500000      7.000000      3.000000, Make: null, ID: soot_45_70_30, Quantity: DENSITY, Species: SOOT
   533 Coords:      5.000000      7.000000      3.000000, Make: null, ID: soot_50_70_30, Quantity: DENSITY, Species: SOOT
   534 Coords:      5.500000      7.000000      3.000000, Make: null, ID: soot_55_70_30, Quantity: DENSITY, Species: SOOT
   535 Coords:      6.000000      7.000000      3.000000, Make: null, ID: soot_60_70_30, Quantity: DENSITY, Species: SOOT
   536 Coords:      6.500000      7.000000      3.000000, Make: null, ID: soot_65_70_30, Quantity: DENSITY, Species: SOOT
   537 Coords:      7.000000      7.000000      3.000000, Make: null, ID: soot_70_70_30, Quantity: DENSITY, Species: SOOT
   538 Coords:      7.500000      7.000000      3.000000, Make: null, ID: soot_75_70_30, Quantity: DENSITY, Species: SOOT
   539 Coords:      8.000000      7.000000      3.000000, Make: null, ID: soot_80_70_30, Quantity: DENSITY, Species: SOOT
   540 Coords:      8.500000      7.000000      3.000000, Make: null, ID: soot_85_70_30, Quantity: DENSITY, Species: SOOT
   541 Coords:      4.500000      7.500000      0.500000, Make: null, ID: soot_45_75_05, Quantity: DENSITY, Species: SOOT
   542 Coords:      5.000000      7.500000      0.500000, Make: null, ID: soot_50_75_05, Quantity: DENSITY, Species: SOOT
   543 Coords:      5.500000      7.500000      0.500000, Make: null, ID: soot_55_75_05, Quantity: DENSITY, Species: SOOT
   544 Coords:      6.000000      7.500000      0.500000, Make: null, ID: soot_60_75_05, Quantity: DENSITY, Species: SOOT
   545 Coords:      6.500000      7.500000      0.500000, Make: null, ID: soot_65_75_05, Quantity: DENSITY, Species: SOOT
   546 Coords:      7.000000      7.500000      0.500000, Make: null, ID: soot_70_75_05, Quantity: DENSITY, Species: SOOT
   547 Coords:      7.500000      7.500000      0.500000, Make: null, ID: soot_75_75_05, Quantity: DENSITY, Species: SOOT
   548 Coords:      8.000000      7.500000      0.500000, Make: null, ID: soot_80_75_05, Quantity: DENSITY, Species: SOOT
   549 Coords:      8.500000      7.500000      0.500000, Make: null, ID: soot_85_75_05, Quantity: DENSITY, Species: SOOT
   550 Coords:      4.500000      7.500000      1.000000, Make: null, ID: soot_45_75_10, Quantity: DENSITY, Species: SOOT
   551 Coords:      5.000000      7.500000      1.000000, Make: null, ID: soot_50_75_10, Quantity: DENSITY, Species: SOOT
   552 Coords:      5.500000      7.500000      1.000000, Make: null, ID: soot_55_75_10, Quantity: DENSITY, Species: SOOT
[...]
       Step Size:    0.171E-01 s, Total Time:    1756.06 s
       Pressure Iterations:      4
       Maximum Velocity Error:  0.52E+00 on Mesh   1 at (  18   1  33)
       Maximum Pressure Error:  0.10E+01 on Mesh   1 at (   1  21   2)
       ---------------------------------------------------------------
       Max CFL number:  0.82E+00 at (   8,  29,  40)
       Max divergence:  0.30E+00 at (  17,  15,   2)
       Min divergence: -0.43E-01 at (  17,  10,   4)
       Max div. error:  0.33E-04 at (  19,   1,  19)
       Max VN number:   0.52E+00 at (   1,  21,   1)
       Total Heat Release Rate:            286.896 kW
       Radiation Loss to Boundaries:       -54.648 kW
 
       Time Step  101400   November  3, 2020  05:46:38
       Step Size:    0.171E-01 s, Total Time:    1757.77 s
       Pressure Iterations:      4
       Maximum Velocity Error:  0.52E+00 on Mesh   1 at (  18   1  33)
       Maximum Pressure Error:  0.90E+00 on Mesh   1 at (   1  40   2)
       ---------------------------------------------------------------
       Max CFL number:  0.81E+00 at (   8,  29,  40)
       Max divergence:  0.33E+00 at (  16,  16,   1)
       Min divergence: -0.10E+00 at (  17,  13,   3)
       Max div. error:  0.33E-04 at (  19,   1,  19)
       Max VN number:   0.56E+00 at (   1,  41,   1)
       Total Heat Release Rate:            291.452 kW
       Radiation Loss to Boundaries:       -53.518 kW
 
       Time Step  101500   November  3, 2020  05:47:11
       Step Size:    0.171E-01 s, Total Time:    1759.48 s
       Pressure Iterations:      4
       Maximum Velocity Error:  0.52E+00 on Mesh   1 at (  18   1  33)
       Maximum Pressure Error:  0.94E+00 on Mesh   1 at (   1  25   2)
       ---------------------------------------------------------------
       Max CFL number:  0.82E+00 at (   8,  26,  40)
       Max divergence:  0.32E+00 at (  17,  16,   1)
       Min divergence: -0.75E-01 at (  17,  12,   2)
       Max div. error:  0.34E-04 at (  19,   1,  19)
       Max VN number:   0.51E+00 at (   1,  42,   1)
       Total Heat Release Rate:            296.734 kW
       Radiation Loss to Boundaries:       -57.226 kW
 
       Time Step  101600   November  3, 2020  05:47:44
       Step Size:    0.171E-01 s, Total Time:    1761.18 s
       Pressure Iterations:      4
       Maximum Velocity Error:  0.52E+00 on Mesh   1 at (  18   1  33)
       Maximum Pressure Error:  0.93E+00 on Mesh   1 at (   1  20   7)
       ---------------------------------------------------------------
       Max CFL number:  0.82E+00 at (   8,  27,  40)
       Max divergence:  0.33E+00 at (  16,  14,   2)
       Min divergence: -0.57E-01 at (  17,  11,   3)
       Max div. error:  0.34E-04 at (  19,   1,  19)
       Max VN number:   0.53E+00 at (   1,  21,   1)
       Total Heat Release Rate:            289.607 kW
       Radiation Loss to Boundaries:       -63.419 kW
 
       Time Step  101700   November  3, 2020  05:48:17
       Step Size:    0.171E-01 s, Total Time:    1762.89 s
       Pressure Iterations:      4
       Maximum Velocity Error:  0.52E+00 on Mesh   1 at (  18   1  33)
       Maximum Pressure Error:  0.95E+00 on Mesh   1 at (   1  23   2)
       ---------------------------------------------------------------
       Max CFL number:  0.82E+00 at (   8,  27,  40)
       Max divergence:  0.30E+00 at (  17,  16,   1)
       Min divergence: -0.74E-01 at (  17,  13,   3)
       Max div. error:  0.34E-04 at (  19,   1,  19)
       Max VN number:   0.50E+00 at (   1,  22,   1)
       Total Heat Release Rate:            290.727 kW
       Radiation Loss to Boundaries:       -68.486 kW
 
       Time Step  101800   November  3, 2020  05:48:51
       Step Size:    0.171E-01 s, Total Time:    1764.60 s
       Pressure Iterations:      4
       Maximum Velocity Error:  0.52E+00 on Mesh   1 at (  18   1  33)
       Maximum Pressure Error:  0.80E+00 on Mesh   1 at (   1  42   2)
       ---------------------------------------------------------------
       Max CFL number:  0.81E+00 at (   8,  29,  40)
       Max divergence:  0.34E+00 at (  16,  16,   1)
       Min divergence: -0.78E-01 at (  17,  12,   2)
       Max div. error:  0.34E-04 at (  19,   1,  19)
       Max VN number:   0.52E+00 at (   1,  41,   1)
       Total Heat Release Rate:            291.726 kW
       Radiation Loss to Boundaries:       -55.675 kW
 
       Time Step  101900   November  3, 2020  05:49:24
       Step Size:    0.171E-01 s, Total Time:    1766.31 s
       Pressure Iterations:      4
       Maximum Velocity Error:  0.52E+00 on Mesh   1 at (  18   1  33)
       Maximum Pressure Error:  0.86E+00 on Mesh   1 at (   1  22   2)
       ---------------------------------------------------------------
       Max CFL number:  0.82E+00 at (   8,  27,  40)
       Max divergence:  0.31E+00 at (  17,  16,   1)
       Min divergence: -0.91E-01 at (  17,  12,   2)
       Max div. error:  0.34E-04 at (  19,   1,  19)
       Max VN number:   0.51E+00 at (   1,  41,   1)
       Total Heat Release Rate:            282.056 kW
       Radiation Loss to Boundaries:       -59.849 kW
 
       Time Step  102000   November  3, 2020  05:49:57
       Step Size:    0.171E-01 s, Total Time:    1768.02 s
       Pressure Iterations:      4
       Maximum Velocity Error:  0.52E+00 on Mesh   1 at (  18   1  33)
       Maximum Pressure Error:  0.11E+01 on Mesh   1 at (   1  23   2)
       ---------------------------------------------------------------
       Max CFL number:  0.81E+00 at (   8,  29,  40)
       Max divergence:  0.30E+00 at (  17,  16,   1)
       Min divergence: -0.48E-01 at (  17,  11,   6)
       Max div. error:  0.34E-04 at (  19,   1,  19)
       Max VN number:   0.52E+00 at (   1,  40,   1)
       Total Heat Release Rate:            287.910 kW
       Radiation Loss to Boundaries:       -58.439 kW
 
       Time Step  102100   November  3, 2020  05:50:30
       Step Size:    0.171E-01 s, Total Time:    1769.72 s
       Pressure Iterations:      4
       Maximum Velocity Error:  0.52E+00 on Mesh   1 at (  18   1  33)
       Maximum Pressure Error:  0.11E+01 on Mesh   1 at (   1  41   2)
       ---------------------------------------------------------------
       Max CFL number:  0.81E+00 at (   8,  30,  40)
       Max divergence:  0.32E+00 at (  16,  16,   1)
       Min divergence: -0.13E+00 at (  17,  13,   2)
       Max div. error:  0.34E-04 at (  19,   1,  19)
       Max VN number:   0.53E+00 at (   1,  41,   1)
       Total Heat Release Rate:            284.200 kW
       Radiation Loss to Boundaries:       -51.328 kW
 
       Time Step  102200   November  3, 2020  05:51:04
       Step Size:    0.171E-01 s, Total Time:    1771.43 s
       Pressure Iterations:      4
       Maximum Velocity Error:  0.52E+00 on Mesh   1 at (  18   1  33)
       Maximum Pressure Error:  0.98E+00 on Mesh   1 at (   1  24   2)
       ---------------------------------------------------------------
       Max CFL number:  0.82E+00 at (   8,  26,  40)
       Max divergence:  0.33E+00 at (  16,  14,   2)
       Min divergence: -0.92E-01 at (  17,  13,   3)
       Max div. error:  0.34E-04 at (  19,   1,  19)
       Max VN number:   0.53E+00 at (   1,  23,   1)
       Total Heat Release Rate:            305.283 kW
       Radiation Loss to Boundaries:       -66.576 kW
 
       Time Step  102300   November  3, 2020  05:51:37
       Step Size:    0.171E-01 s, Total Time:    1773.14 s
       Pressure Iterations:      4
       Maximum Velocity Error:  0.52E+00 on Mesh   1 at (  18   1  33)
       Maximum Pressure Error:  0.97E+00 on Mesh   1 at (  12   5  25)
       ---------------------------------------------------------------
       Max CFL number:  0.82E+00 at (   8,  32,  40)
       Max divergence:  0.37E+00 at (  17,  16,   1)
       Min divergence: -0.69E-01 at (  17,  12,   2)
       Max div. error:  0.34E-04 at (  19,   1,  19)
       Max VN number:   0.53E+00 at (   1,  41,   1)
       Total Heat Release Rate:            295.499 kW
       Radiation Loss to Boundaries:       -63.499 kW
 
       Time Step  102400   November  3, 2020  05:52:10
       Step Size:    0.171E-01 s, Total Time:    1774.85 s
       Pressure Iterations:      4
       Maximum Velocity Error:  0.52E+00 on Mesh   1 at (  18   1  33)
       Maximum Pressure Error:  0.96E+00 on Mesh   1 at (   1  40   2)
       ---------------------------------------------------------------
       Max CFL number:  0.81E+00 at (   8,  30,  40)
       Max divergence:  0.32E+00 at (  16,  16,   1)
       Min divergence: -0.52E-01 at (  17,  12,   2)
       Max div. error:  0.34E-04 at (  19,   1,  19)
       Max VN number:   0.52E+00 at (   1,  41,   1)
       Total Heat Release Rate:            288.634 kW
       Radiation Loss to Boundaries:       -59.711 kW
 
       Time Step  102500   November  3, 2020  05:52:44
       Step Size:    0.171E-01 s, Total Time:    1776.55 s
       Pressure Iterations:      4
       Maximum Velocity Error:  0.52E+00 on Mesh   1 at (  18   1  33)
       Maximum Pressure Error:  0.11E+01 on Mesh   1 at (   1  23   2)
       ---------------------------------------------------------------
       Max CFL number:  0.82E+00 at (   8,  26,  40)
       Max divergence:  0.31E+00 at (  17,  15,   2)
       Min divergence: -0.16E+00 at (  17,  13,   2)
       Max div. error:  0.34E-04 at (  19,   1,  19)
       Max VN number:   0.51E+00 at (   1,  41,   1)
       Total Heat Release Rate:            278.123 kW
       Radiation Loss to Boundaries:       -46.552 kW
 
       Time Step  102600   November  3, 2020  05:53:17
       Step Size:    0.171E-01 s, Total Time:    1778.26 s
       Pressure Iterations:      4
       Maximum Velocity Error:  0.52E+00 on Mesh   1 at (  18   1  33)
       Maximum Pressure Error:  0.10E+01 on Mesh   1 at (   1  21   2)
       ---------------------------------------------------------------
       Max CFL number:  0.82E+00 at (   8,  26,  40)
       Max divergence:  0.33E+00 at (  16,  16,   1)
       Min divergence: -0.57E-01 at (  17,  10,   7)
       Max div. error:  0.34E-04 at (  19,   1,  19)
       Max VN number:   0.52E+00 at (   1,  24,   1)
       Total Heat Release Rate:            296.333 kW
       Radiation Loss to Boundaries:       -57.174 kW
 
       Time Step  102700   November  3, 2020  05:53:50
       Step Size:    0.171E-01 s, Total Time:    1779.97 s
       Pressure Iterations:      4
       Maximum Velocity Error:  0.52E+00 on Mesh   1 at (  18   1  33)
       Maximum Pressure Error:  0.10E+01 on Mesh   1 at (   1  40   2)
       ---------------------------------------------------------------
       Max CFL number:  0.81E+00 at (   8,  27,  40)
       Max divergence:  0.36E+00 at (  16,  14,   2)
       Min divergence: -0.11E+00 at (  17,  13,   3)
       Max div. error:  0.34E-04 at (  19,   1,  19)
       Max VN number:   0.52E+00 at (   1,  41,   1)
       Total Heat Release Rate:            298.080 kW
       Radiation Loss to Boundaries:       -61.843 kW
 
       Time Step  102800   November  3, 2020  05:54:24
       Step Size:    0.171E-01 s, Total Time:    1781.68 s
       Pressure Iterations:      4
       Maximum Velocity Error:  0.52E+00 on Mesh   1 at (  18   1  33)
       Maximum Pressure Error:  0.11E+01 on Mesh   1 at (   1  42   2)
       ---------------------------------------------------------------
       Max CFL number:  0.81E+00 at (   8,  28,  40)
       Max divergence:  0.34E+00 at (  16,  16,   1)
       Min divergence: -0.73E-01 at (  17,  12,   2)
       Max div. error:  0.34E-04 at (  19,   1,  19)
       Max VN number:   0.62E+00 at (   1,  41,   1)
       Total Heat Release Rate:            296.752 kW
       Radiation Loss to Boundaries:       -62.522 kW
 
       Time Step  102900   November  3, 2020  05:54:57
       Step Size:    0.171E-01 s, Total Time:    1783.38 s
       Pressure Iterations:      4
       Maximum Velocity Error:  0.52E+00 on Mesh   1 at (  18   1  33)
       Maximum Pressure Error:  0.12E+01 on Mesh   1 at (   1   1   2)
       ---------------------------------------------------------------
       Max CFL number:  0.82E+00 at (   8,  25,  40)
       Max divergence:  0.32E+00 at (  16,  16,   1)
       Min divergence: -0.88E-01 at (  17,  12,   2)
       Max div. error:  0.34E-04 at (  19,   1,  19)
       Max VN number:   0.51E+00 at (   1,  40,   1)
       Total Heat Release Rate:            295.594 kW
       Radiation Loss to Boundaries:       -64.680 kW
 
       Time Step  103000   November  3, 2020  05:55:30
       Step Size:    0.171E-01 s, Total Time:    1785.09 s
       Pressure Iterations:      4
       Maximum Velocity Error:  0.52E+00 on Mesh   1 at (  18   1  33)
       Maximum Pressure Error:  0.12E+01 on Mesh   1 at (   1   9   3)
       ---------------------------------------------------------------
       Max CFL number:  0.82E+00 at (   8,  29,  40)
       Max divergence:  0.35E+00 at (  16,  16,   1)
       Min divergence: -0.13E+00 at (  17,  12,   2)
       Max div. error:  0.35E-04 at (  19,   1,  19)
       Max VN number:   0.50E+00 at (   1,  23,   1)
       Total Heat Release Rate:            300.729 kW
       Radiation Loss to Boundaries:       -65.517 kW
 
       Time Step  103100   November  3, 2020  05:56:03
       Step Size:    0.171E-01 s, Total Time:    1786.80 s
       Pressure Iterations:      4
       Maximum Velocity Error:  0.52E+00 on Mesh   1 at (  18   1  33)
       Maximum Pressure Error:  0.12E+01 on Mesh   1 at (   1   2   2)
       ---------------------------------------------------------------
       Max CFL number:  0.82E+00 at (   8,  27,  40)
       Max divergence:  0.32E+00 at (  17,  16,   1)
       Min divergence: -0.64E-01 at (  17,  11,   4)
       Max div. error:  0.35E-04 at (  19,   1,  19)
       Max VN number:   0.52E+00 at (   1,  23,   1)
       Total Heat Release Rate:            286.683 kW
       Radiation Loss to Boundaries:       -51.925 kW
 
       Time Step  103200   November  3, 2020  05:56:37
       Step Size:    0.171E-01 s, Total Time:    1788.51 s
       Pressure Iterations:      4
       Maximum Velocity Error:  0.52E+00 on Mesh   1 at (  18   1  33)
       Maximum Pressure Error:  0.97E+00 on Mesh   1 at (   1  23   2)
       ---------------------------------------------------------------
       Max CFL number:  0.82E+00 at (   8,  28,  40)
       Max divergence:  0.36E+00 at (  16,  14,   2)
       Min divergence: -0.11E+00 at (  17,  13,   2)
       Max div. error:  0.35E-04 at (  19,   1,  19)
       Max VN number:   0.52E+00 at (   1,  23,   1)
       Total Heat Release Rate:            298.518 kW
       Radiation Loss to Boundaries:       -59.083 kW
 
       Time Step  103300   November  3, 2020  05:57:10
       Step Size:    0.171E-01 s, Total Time:    1790.22 s
       Pressure Iterations:      4
       Maximum Velocity Error:  0.52E+00 on Mesh   1 at (  18   1  33)
       Maximum Pressure Error:  0.94E+00 on Mesh   1 at (   1  23   2)
       ---------------------------------------------------------------
       Max CFL number:  0.82E+00 at (   8,  31,  40)
       Max divergence:  0.30E+00 at (  16,  16,   1)
       Min divergence: -0.66E-01 at (  17,  12,   2)
       Max div. error:  0.35E-04 at (  19,   1,  19)
       Max VN number:   0.49E+00 at (   1,  23,   1)
       Total Heat Release Rate:            285.741 kW
       Radiation Loss to Boundaries:       -65.077 kW
 
       Time Step  103400   November  3, 2020  05:57:43
       Step Size:    0.171E-01 s, Total Time:    1791.92 s
       Pressure Iterations:      4
       Maximum Velocity Error:  0.52E+00 on Mesh   1 at (  18   1  33)
       Maximum Pressure Error:  0.10E+01 on Mesh   1 at (   1  42   2)
       ---------------------------------------------------------------
       Max CFL number:  0.81E+00 at (   8,  30,  40)
       Max divergence:  0.33E+00 at (  17,  16,   1)
       Min divergence: -0.62E-01 at (  17,  13,   3)
       Max div. error:  0.35E-04 at (  19,   1,  19)
       Max VN number:   0.52E+00 at (   1,  41,   1)
       Total Heat Release Rate:            296.888 kW
       Radiation Loss to Boundaries:       -67.696 kW
 
       Time Step  103500   November  3, 2020  05:58:16
       Step Size:    0.171E-01 s, Total Time:    1793.63 s
       Pressure Iterations:      4
       Maximum Velocity Error:  0.52E+00 on Mesh   1 at (  18   1  33)
       Maximum Pressure Error:  0.99E+00 on Mesh   1 at (   1  22   2)
       ---------------------------------------------------------------
       Max CFL number:  0.81E+00 at (   8,  27,  40)
       Max divergence:  0.31E+00 at (  17,  16,   1)
       Min divergence: -0.60E-01 at (  17,  13,   3)
       Max div. error:  0.35E-04 at (  19,   1,  19)
       Max VN number:   0.51E+00 at (   1,  40,   1)
       Total Heat Release Rate:            285.800 kW
       Radiation Loss to Boundaries:       -65.806 kW
 
       Time Step  103600   November  3, 2020  05:58:49
       Step Size:    0.171E-01 s, Total Time:    1795.34 s
       Pressure Iterations:      4
       Maximum Velocity Error:  0.52E+00 on Mesh   1 at (  18   1  33)
       Maximum Pressure Error:  0.14E+01 on Mesh   1 at (   1  24   2)
       ---------------------------------------------------------------
       Max CFL number:  0.82E+00 at (   8,  30,  40)
       Max divergence:  0.33E+00 at (  17,  16,   1)
       Min divergence: -0.13E+00 at (  17,  12,   2)
       Max div. error:  0.35E-04 at (  19,   1,  19)
       Max VN number:   0.51E+00 at (   1,  25,   1)
       Total Heat Release Rate:            299.787 kW
       Radiation Loss to Boundaries:       -69.077 kW
 
       Time Step  103700   November  3, 2020  05:59:22
       Step Size:    0.171E-01 s, Total Time:    1797.05 s
       Pressure Iterations:      4
       Maximum Velocity Error:  0.52E+00 on Mesh   1 at (  18   1  33)
       Maximum Pressure Error:  0.11E+01 on Mesh   1 at (   1  41   2)
       ---------------------------------------------------------------
       Max CFL number:  0.81E+00 at (   8,  29,  40)
       Max divergence:  0.33E+00 at (  16,  16,   1)
       Min divergence: -0.82E-01 at (  17,  13,   3)
       Max div. error:  0.35E-04 at (  19,   1,  19)
       Max VN number:   0.54E+00 at (   1,  42,   1)
       Total Heat Release Rate:            294.302 kW
       Radiation Loss to Boundaries:       -54.297 kW
 
       Time Step  103800   November  3, 2020  05:59:55
       Step Size:    0.171E-01 s, Total Time:    1798.75 s
       Pressure Iterations:      4
       Maximum Velocity Error:  0.52E+00 on Mesh   1 at (  18   1  33)
       Maximum Pressure Error:  0.12E+01 on Mesh   1 at (   1   3   2)
       ---------------------------------------------------------------
       Max CFL number:  0.82E+00 at (   8,  25,  40)
       Max divergence:  0.34E+00 at (  17,  16,   1)
       Min divergence: -0.99E-01 at (  17,  13,   2)
       Max div. error:  0.35E-04 at (  19,   1,  19)
       Max VN number:   0.56E+00 at (   1,  43,   1)
       Total Heat Release Rate:            289.386 kW
       Radiation Loss to Boundaries:       -57.382 kW
 
       Time Step  103873   November  3, 2020  06:00:20
       Step Size:    0.168E-01 s, Total Time:    1800.00 s
       Pressure Iterations:      4
       Maximum Velocity Error:  0.52E+00 on Mesh   1 at (  18   1  33)
       Maximum Pressure Error:  0.15E+01 on Mesh   1 at (   1   1   2)
       ---------------------------------------------------------------
       Max CFL number:  0.80E+00 at (   8,  27,  40)
       Max divergence:  0.33E+00 at (  16,  16,   1)
       Min divergence: -0.56E-01 at (  17,  13,   3)
       Max div. error:  0.35E-04 at (  19,   1,  19)
       Max VN number:   0.49E+00 at (   1,  23,   1)
       Total Heat Release Rate:            308.168 kW
       Radiation Loss to Boundaries:       -70.684 kW
 


 Time Stepping Wall Clock Time (s):    33520.452
 Total Elapsed Wall Clock Time (s):    33528.961

STOP: FDS completed successfully (CHID: Tor Faraj)
